
  -INDIGO-02112615072D

 15 14  0  0  0  0  0  0  0  0999 V2000
    6.3112    1.3337    0.0000 F   0  0  0  0  0  0  0  0  0  0  0  0
    7.8512   -1.3337    0.0000 F   0  0  0  0  0  0  0  0  0  0  0  0
    4.9775    0.5637    0.0000 F   0  0  0  0  0  0  0  0  0  0  0  0
    6.5175   -2.1037    0.0000 F   0  0  0  0  0  0  0  0  0  0  0  0
    7.6449    2.1037    0.0000 F   0  0  0  0  0  0  0  0  0  0  0  0
    9.1849   -0.5637    0.0000 F   0  0  0  0  0  0  0  0  0  0  0  0
    3.0800   -0.7700    0.0000 F   0  0  0  0  0  0  0  0  0  0  0  0
    4.4137   -3.0800    0.0000 F   0  0  0  0  0  0  0  0  0  0  0  0
    9.7485    3.0800    0.0000 O   0  0  0  0  0  0  0  0  0  0  0  0
   11.0824    0.7700    0.0000 N   0  0  0  0  0  0  0  0  0  0  0  0
    7.0812    0.0000    0.0000 C   0  0  0  0  0  0  0  0  0  0  0  0
    5.7475   -0.7700    0.0000 C   0  0  0  0  0  0  0  0  0  0  0  0
    8.4149    0.7700    0.0000 C   0  0  0  0  0  0  0  0  0  0  0  0
    4.4137   -1.5400    0.0000 C   0  0  0  0  0  0  0  0  0  0  0  0
    9.7485    1.5400    0.0000 C   0  0  0  0  0  0  0  0  0  0  0  0
  1 11  1  0  0  0  0
  2 11  1  0  0  0  0
  3 12  1  0  0  0  0
  4 12  1  0  0  0  0
  5 13  1  0  0  0  0
  6 13  1  0  0  0  0
  7 14  1  0  0  0  0
  8 14  1  0  0  0  0
  9 15  2  0  0  0  0
 10 15  1  0  0  0  0
 11 12  1  0  0  0  0
 11 13  1  0  0  0  0
 12 14  1  0  0  0  0
 13 15  1  0  0  0  0
M  END
>  <INPUT>
DTXSID70366226

>  <FOUND_BY>
DSSTox_Substance_Id

>  <DTXSID>
DTXSID70366226

>  <PREFERRED_NAME>
Perfluoropentanamide

>  <CASRN>
355-81-7

>  <INCHIKEY>
QNNUQHBPTQVSFD-UHFFFAOYSA-N

>  <IUPAC_NAME>
2,2,3,3,4,4,5,5-Octafluoropentanamide

>  <SMILES>
NC(=O)C(F)(F)C(F)(F)C(F)(F)C(F)F

>  <INCHI_STRING>
InChI=1S/C5H3F8NO/c6-1(7)3(8,9)5(12,13)4(10,11)2(14)15/h1H,(H2,14,15)

>  <MOLECULAR_FORMULA>
C5H3F8NO

>  <AVERAGE_MASS>
245.072

>  <MONOISOTOPIC_MASS>
245.008689025

>  <MOL_FILE>
MOL_FILE

$$$$

  -INDIGO-02112615072D

 24 25  0  0  0  0  0  0  0  0999 V2000
   -1.2569   -4.3246    0.0000 F   0  0  0  0  0  0  0  0  0  0  0  0
   -2.0540   -1.3494    0.0000 F   0  0  0  0  0  0  0  0  0  0  0  0
   -2.7444   -4.7234    0.0000 F   0  0  0  0  0  0  0  0  0  0  0  0
   -3.5417   -1.7480    0.0000 F   0  0  0  0  0  0  0  0  0  0  0  0
   -6.1184   -4.0330    0.0000 F   0  0  0  0  0  0  0  0  0  0  0  0
   -4.2321   -5.1220    0.0000 F   0  0  0  0  0  0  0  0  0  0  0  0
   -5.0293   -2.1465    0.0000 F   0  0  0  0  0  0  0  0  0  0  0  0
   -2.0268    0.7817    0.0000 O   0  0  0  0  0  0  0  0  0  0  0  0
    0.9212   -3.5275    0.0000 O   0  0  0  0  0  0  0  0  0  0  0  0
    2.1625    3.5904    0.0000 C   0  0  0  0  0  0  0  0  0  0  0  0
    3.2970    2.0769    0.0000 C   0  0  1  0  0  0  0  0  0  0  0  0
    2.8984    0.5892    0.0000 C   0  0  1  0  0  0  0  0  0  0  0  0
    0.2308   -0.9508    0.0000 C   0  0  0  0  0  0  0  0  0  0  0  0
    6.1184    0.9082    0.0000 C   0  0  0  0  0  0  0  0  0  0  0  0
    5.7198   -0.5795    0.0000 C   0  0  0  0  0  0  0  0  0  0  0  0
   -0.5392    0.3829    0.0000 C   0  0  0  0  0  0  0  0  0  0  0  0
    2.3236    5.1220    0.0000 C   0  0  0  0  0  0  0  0  0  0  0  0
    0.7556    4.2167    0.0000 C   0  0  0  0  0  0  0  0  0  0  0  0
    3.6956    3.5646    0.0000 C   0  0  0  0  0  0  0  0  0  0  0  0
   -0.1677   -2.4385    0.0000 C   0  0  0  0  0  0  0  0  0  0  0  0
   -1.6555   -2.8371    0.0000 C   0  0  0  0  0  0  0  0  0  0  0  0
   -3.1430   -3.2357    0.0000 C   0  0  0  0  0  0  0  0  0  0  0  0
   -4.6307   -3.6344    0.0000 C   0  0  0  0  0  0  0  0  0  0  0  0
    2.5796   -0.6008    0.0000 H   0  0  0  0  0  0  0  0  0  0  0  0
  1 21  1  0  0  0  0
  2 21  1  0  0  0  0
  3 22  1  0  0  0  0
  4 22  1  0  0  0  0
  5 23  1  0  0  0  0
  6 23  1  0  0  0  0
  7 23  1  0  0  0  0
  8 16  2  0  0  0  0
  9 20  2  0  0  0  0
 10 11  1  0  0  0  0
 10 12  1  0  0  0  0
 10 17  1  0  0  0  0
 10 18  1  0  0  0  0
 11 14  1  0  0  0  0
 11 16  1  0  0  0  0
 11 19  1  6  0  0  0
 12 13  1  0  0  0  0
 12 15  1  0  0  0  0
 12 24  1  1  0  0  0
 13 16  1  0  0  0  0
 13 20  1  0  0  0  0
 14 15  1  0  0  0  0
 20 21  1  0  0  0  0
 21 22  1  0  0  0  0
 22 23  1  0  0  0  0
M  END
>  <INPUT>
DTXSID80880448

>  <FOUND_BY>
DSSTox_Substance_Id

>  <DTXSID>
DTXSID80880448

>  <PREFERRED_NAME>
(1R,4R)-3-(Heptafluorobutyryl)-camphor

>  <CASRN>
51800-99-8

>  <INCHIKEY>
PEWOESYEGLBLNR-ZERSIIKUNA-N

>  <IUPAC_NAME>
(1R,4R)-3-(2,2,3,3,4,4,4-Heptafluorobutanoyl)-1,7,7-trimethylbicyclo[2.2.1]heptan-2-one

>  <SMILES>
[H][C@@]12CC[C@@](C)(C(=O)C1C(=O)C(F)(F)C(F)(F)C(F)(F)F)C2(C)C

>  <INCHI_STRING>
InChI=1S/C14H15F7O2/c1-10(2)6-4-5-11(10,3)8(22)7(6)9(23)12(15,16)13(17,18)14(19,20)21/h6-7H,4-5H2,1-3H3/t6-,7?,11+/m1/s1

>  <MOLECULAR_FORMULA>
C14H15F7O2

>  <AVERAGE_MASS>
348.261

>  <MONOISOTOPIC_MASS>
348.096026864

>  <MOL_FILE>
MOL_FILE

$$$$

  -INDIGO-02112615072D

 13 12  0  0  0  0  0  0  0  0999 V2000
    3.0800    3.2756    0.0000 F   0  0  0  0  0  0  0  0  0  0  0  0
    3.6437    1.1719    0.0000 F   0  0  0  0  0  0  0  0  0  0  0  0
    5.1837    3.8394    0.0000 F   0  0  0  0  0  0  0  0  0  0  0  0
    8.4149    3.2756    0.0000 F   0  0  0  0  0  0  0  0  0  0  0  0
    7.8512    1.1719    0.0000 F   0  0  0  0  0  0  0  0  0  0  0  0
    6.3112    3.8394    0.0000 F   0  0  0  0  0  0  0  0  0  0  0  0
    5.7475    0.1956    0.0000 O   0  0  0  0  0  0  0  0  0  0  0  0
    3.0800   -2.8846    0.0000 O   0  0  0  0  0  0  0  0  0  0  0  0
    5.7475    1.7356    0.0000 C   0  0  0  0  0  0  0  0  0  0  0  0
    7.0812    2.5056    0.0000 C   0  0  0  0  0  0  0  0  0  0  0  0
    4.4137    2.5056    0.0000 C   0  0  0  0  0  0  0  0  0  0  0  0
    4.4137   -0.5744    0.0000 C   0  0  0  0  0  0  0  0  0  0  0  0
    4.4137   -2.1144    0.0000 C   0  0  0  0  0  0  0  0  0  0  0  0
  1 11  1  0  0  0  0
  2 11  1  0  0  0  0
  3 11  1  0  0  0  0
  4 10  1  0  0  0  0
  5 10  1  0  0  0  0
  6 10  1  0  0  0  0
  7  9  1  0  0  0  0
  7 12  1  0  0  0  0
  8 13  1  0  0  0  0
  9 10  1  0  0  0  0
  9 11  1  0  0  0  0
 12 13  1  0  0  0  0
M  END
>  <INPUT>
DTXSID60654260

>  <FOUND_BY>
DSSTox_Substance_Id

>  <DTXSID>
DTXSID60654260

>  <PREFERRED_NAME>
1,1-bis(Trifluoromethyl)methoxy-2-ethanol

>  <CASRN>
63693-13-0

>  <INCHIKEY>
HBEFIVLAGLFQET-UHFFFAOYSA-N

>  <IUPAC_NAME>
2-[(1,1,1,3,3,3-Hexafluoropropan-2-yl)oxy]ethan-1-ol

>  <SMILES>
OCCOC(C(F)(F)F)C(F)(F)F

>  <INCHI_STRING>
InChI=1S/C5H6F6O2/c6-4(7,8)3(5(9,10)11)13-2-1-12/h3,12H,1-2H2

>  <MOLECULAR_FORMULA>
C5H6F6O2

>  <AVERAGE_MASS>
212.091

>  <MONOISOTOPIC_MASS>
212.027198411

>  <MOL_FILE>
MOL_FILE

$$$$

  -INDIGO-02112615072D

 20 19  0  0  0  0  0  0  0  0999 V2000
    8.6210    4.9773    0.0000 O   0  0  0  0  0  0  0  0  0  0  0  0
    8.6210    3.4373    0.0000 C   0  0  0  0  0  0  0  0  0  0  0  0
    7.2873    2.6673    0.0000 O   0  0  0  0  0  0  0  0  0  0  0  0
    5.9537    3.4373    0.0000 C   0  0  0  0  0  0  0  0  0  0  0  0
    4.6200    2.6673    0.0000 C   0  0  0  0  0  0  0  0  0  0  0  0
    3.2863    3.4373    0.0000 C   0  0  0  0  0  0  0  0  0  0  0  0
    2.5163    2.1037    0.0000 F   0  0  0  0  0  0  0  0  0  0  0  0
    4.0563    4.7710    0.0000 F   0  0  0  0  0  0  0  0  0  0  0  0
    1.9527    4.2073    0.0000 C   0  0  0  0  0  0  0  0  0  0  0  0
    1.1827    2.8737    0.0000 F   0  0  0  0  0  0  0  0  0  0  0  0
    2.7227    5.5410    0.0000 F   0  0  0  0  0  0  0  0  0  0  0  0
    0.6190    4.9773    0.0000 C   0  0  0  0  0  0  0  0  0  0  0  0
   -0.1510    3.6437    0.0000 F   0  0  0  0  0  0  0  0  0  0  0  0
    1.3890    6.3110    0.0000 F   0  0  0  0  0  0  0  0  0  0  0  0
   -0.7147    5.7473    0.0000 C   0  0  0  0  0  0  0  0  0  0  0  0
   -2.0485    6.5173    0.0000 F   0  0  0  0  0  0  0  0  0  0  0  0
   -1.4847    4.4137    0.0000 F   0  0  0  0  0  0  0  0  0  0  0  0
    0.0553    7.0810    0.0000 F   0  0  0  0  0  0  0  0  0  0  0  0
    9.9547    2.6673    0.0000 C   0  0  0  0  0  0  0  0  0  0  0  0
   11.2885    3.4373    0.0000 C   0  0  0  0  0  0  0  0  0  0  0  0
  1  2  2  0  0  0  0
  2  3  1  0  0  0  0
  3  4  1  0  0  0  0
  4  5  1  0  0  0  0
  5  6  1  0  0  0  0
  6  7  1  0  0  0  0
  6  8  1  0  0  0  0
  6  9  1  0  0  0  0
  9 10  1  0  0  0  0
  9 11  1  0  0  0  0
  9 12  1  0  0  0  0
 12 13  1  0  0  0  0
 12 14  1  0  0  0  0
 12 15  1  0  0  0  0
 15 16  1  0  0  0  0
 15 17  1  0  0  0  0
 15 18  1  0  0  0  0
  2 19  1  0  0  0  0
 19 20  2  0  0  0  0
M  END
>  <INPUT>
DTXSID1068772

>  <FOUND_BY>
DSSTox_Substance_Id

>  <DTXSID>
DTXSID1068772

>  <PREFERRED_NAME>
2-(Perfluorobutyl)ethyl acrylate

>  <CASRN>
52591-27-2

>  <INCHIKEY>
GYUPEJSTJSFVRR-UHFFFAOYSA-N

>  <IUPAC_NAME>
3,3,4,4,5,5,6,6,6-Nonafluorohexyl prop-2-enoate

>  <SMILES>
FC(F)(F)C(F)(F)C(F)(F)C(F)(F)CCOC(=O)C=C

>  <INCHI_STRING>
InChI=1S/C9H7F9O2/c1-2-5(19)20-4-3-6(10,11)7(12,13)8(14,15)9(16,17)18/h2H,1,3-4H2


>  <MOLECULAR_FORMULA>
C9H7F9O2

>  <AVERAGE_MASS>
318.139

>  <MONOISOTOPIC_MASS>
318.030232932

>  <MOL_FILE>
MOL_FILE

$$$$

  -INDIGO-02112615072D

 33 32  0  0  0  0  0  0  0  0999 V2000
    9.7485    1.5400    0.0000 S   0  0  0  0  0  0  0  0  0  0  0  0
   12.4161    1.5400    0.0000 S   0  0  0  0  0  0  0  0  0  0  0  0
    7.6449    2.1037    0.0000 F   0  0  0  0  0  0  0  0  0  0  0  0
    9.1849   -0.5637    0.0000 F   0  0  0  0  0  0  0  0  0  0  0  0
   14.5197    2.1037    0.0000 F   0  0  0  0  0  0  0  0  0  0  0  0
   12.9797   -0.5637    0.0000 F   0  0  0  0  0  0  0  0  0  0  0  0
    6.3112    1.3337    0.0000 F   0  0  0  0  0  0  0  0  0  0  0  0
    7.8512   -1.3337    0.0000 F   0  0  0  0  0  0  0  0  0  0  0  0
   15.8534    1.3337    0.0000 F   0  0  0  0  0  0  0  0  0  0  0  0
   14.3134   -1.3337    0.0000 F   0  0  0  0  0  0  0  0  0  0  0  0
    4.9775    0.5637    0.0000 F   0  0  0  0  0  0  0  0  0  0  0  0
    6.5175   -2.1037    0.0000 F   0  0  0  0  0  0  0  0  0  0  0  0
   17.1873    0.5637    0.0000 F   0  0  0  0  0  0  0  0  0  0  0  0
   15.6471   -2.1037    0.0000 F   0  0  0  0  0  0  0  0  0  0  0  0
    3.0800   -2.3100    0.0000 F   0  0  0  0  0  0  0  0  0  0  0  0
    3.6437   -0.2065    0.0000 F   0  0  0  0  0  0  0  0  0  0  0  0
    5.1837   -2.8737    0.0000 F   0  0  0  0  0  0  0  0  0  0  0  0
   19.0846   -2.3100    0.0000 F   0  0  0  0  0  0  0  0  0  0  0  0
   18.5209   -0.2065    0.0000 F   0  0  0  0  0  0  0  0  0  0  0  0
   16.9809   -2.8737    0.0000 F   0  0  0  0  0  0  0  0  0  0  0  0
   11.0824    2.3100    0.0000 O   0  0  0  0  0  0  0  0  0  0  0  0
   10.5187    0.2065    0.0000 O   0  0  0  0  0  0  0  0  0  0  0  0
    8.9785    2.8737    0.0000 O   0  0  0  0  0  0  0  0  0  0  0  0
   13.1861    2.8737    0.0000 O   0  0  0  0  0  0  0  0  0  0  0  0
   11.6461    0.2065    0.0000 O   0  0  0  0  0  0  0  0  0  0  0  0
    8.4149    0.7700    0.0000 C   0  0  0  0  0  0  0  0  0  0  0  0
   13.7497    0.7700    0.0000 C   0  0  0  0  0  0  0  0  0  0  0  0
    7.0812    0.0000    0.0000 C   0  0  0  0  0  0  0  0  0  0  0  0
   15.0834    0.0000    0.0000 C   0  0  0  0  0  0  0  0  0  0  0  0
    5.7475   -0.7700    0.0000 C   0  0  0  0  0  0  0  0  0  0  0  0
   16.4171   -0.7700    0.0000 C   0  0  0  0  0  0  0  0  0  0  0  0
    4.4137   -1.5400    0.0000 C   0  0  0  0  0  0  0  0  0  0  0  0
   17.7509   -1.5400    0.0000 C   0  0  0  0  0  0  0  0  0  0  0  0
  1 21  1  0  0  0  0
  1 22  2  0  0  0  0
  1 23  2  0  0  0  0
  1 26  1  0  0  0  0
  2 21  1  0  0  0  0
  2 24  2  0  0  0  0
  2 25  2  0  0  0  0
  2 27  1  0  0  0  0
  3 26  1  0  0  0  0
  4 26  1  0  0  0  0
  5 27  1  0  0  0  0
  6 27  1  0  0  0  0
  7 28  1  0  0  0  0
  8 28  1  0  0  0  0
  9 29  1  0  0  0  0
 10 29  1  0  0  0  0
 11 30  1  0  0  0  0
 12 30  1  0  0  0  0
 13 31  1  0  0  0  0
 14 31  1  0  0  0  0
 15 32  1  0  0  0  0
 16 32  1  0  0  0  0
 17 32  1  0  0  0  0
 18 33  1  0  0  0  0
 19 33  1  0  0  0  0
 20 33  1  0  0  0  0
 26 28  1  0  0  0  0
 27 29  1  0  0  0  0
 28 30  1  0  0  0  0
 29 31  1  0  0  0  0
 30 32  1  0  0  0  0
 31 33  1  0  0  0  0
M  END
>  <INPUT>
DTXSID40190398

>  <FOUND_BY>
DSSTox_Substance_Id

>  <DTXSID>
DTXSID40190398

>  <PREFERRED_NAME>
Perfluorobutanesulfonic anhydride

>  <CASRN>
36913-91-4

>  <INCHIKEY>
QKIHLPFZYGFMDK-UHFFFAOYSA-N

>  <IUPAC_NAME>
N/A

>  <SMILES>
FC(F)(F)C(F)(F)C(F)(F)C(F)(F)S(=O)(=O)OS(=O)(=O)C(F)(F)C(F)(F)C(F)(F)C(F)(F)F

>  <INCHI_STRING>
InChI=1S/C8F18O5S2/c9-1(10,5(17,18)19)3(13,14)7(23,24)32(27,28)31-33(29,30)8(25,26)4(15,16)2(11,12)6(20,21)22

>  <MOLECULAR_FORMULA>
C8F18O5S2

>  <AVERAGE_MASS>
582.17

>  <MONOISOTOPIC_MASS>
581.889972382

>  <MOL_FILE>
MOL_FILE

$$$$

  -INDIGO-02112615072D

 31 30  0  0  0  0  0  0  0  0999 V2000
    8.9785    0.8454    0.0000 F   0  0  0  0  0  0  0  0  0  0  0  0
   10.5187   -1.8219    0.0000 F   0  0  0  0  0  0  0  0  0  0  0  0
   10.3124    1.6154    0.0000 F   0  0  0  0  0  0  0  0  0  0  0  0
   11.8524   -1.0519    0.0000 F   0  0  0  0  0  0  0  0  0  0  0  0
    7.6449    0.0754    0.0000 F   0  0  0  0  0  0  0  0  0  0  0  0
    9.1849   -2.5919    0.0000 F   0  0  0  0  0  0  0  0  0  0  0  0
   13.1861   -0.2819    0.0000 F   0  0  0  0  0  0  0  0  0  0  0  0
   11.6461    2.3856    0.0000 F   0  0  0  0  0  0  0  0  0  0  0  0
    6.3112   -0.6946    0.0000 F   0  0  0  0  0  0  0  0  0  0  0  0
    7.8512   -3.3619    0.0000 F   0  0  0  0  0  0  0  0  0  0  0  0
   14.5197    0.4881    0.0000 F   0  0  0  0  0  0  0  0  0  0  0  0
   12.9797    3.1556    0.0000 F   0  0  0  0  0  0  0  0  0  0  0  0
    4.9775   -1.4646    0.0000 F   0  0  0  0  0  0  0  0  0  0  0  0
    6.5175   -4.1319    0.0000 F   0  0  0  0  0  0  0  0  0  0  0  0
   15.8534    1.2581    0.0000 F   0  0  0  0  0  0  0  0  0  0  0  0
   14.3134    3.9256    0.0000 F   0  0  0  0  0  0  0  0  0  0  0  0
    3.0800   -4.3383    0.0000 F   0  0  0  0  0  0  0  0  0  0  0  0
    3.6437   -2.2346    0.0000 F   0  0  0  0  0  0  0  0  0  0  0  0
    5.1837   -4.9019    0.0000 F   0  0  0  0  0  0  0  0  0  0  0  0
   17.7509    2.5919    0.0000 F   0  0  0  0  0  0  0  0  0  0  0  0
   16.4171    4.9019    0.0000 F   0  0  0  0  0  0  0  0  0  0  0  0
    9.7485   -0.4881    0.0000 C   0  0  0  0  0  0  0  0  0  0  0  0
   11.0824    0.2819    0.0000 C   0  0  0  0  0  0  0  0  0  0  0  0
    8.4149   -1.2581    0.0000 C   0  0  0  0  0  0  0  0  0  0  0  0
   12.4161    1.0519    0.0000 C   0  0  0  0  0  0  0  0  0  0  0  0
    7.0812   -2.0281    0.0000 C   0  0  0  0  0  0  0  0  0  0  0  0
   13.7497    1.8219    0.0000 C   0  0  0  0  0  0  0  0  0  0  0  0
    5.7475   -2.7983    0.0000 C   0  0  0  0  0  0  0  0  0  0  0  0
   15.0834    2.5919    0.0000 C   0  0  0  0  0  0  0  0  0  0  0  0
    4.4137   -3.5683    0.0000 C   0  0  0  0  0  0  0  0  0  0  0  0
   16.4171    3.3619    0.0000 C   0  0  0  0  0  0  0  0  0  0  0  0
  1 22  1  0  0  0  0
  2 22  1  0  0  0  0
  3 23  1  0  0  0  0
  4 23  1  0  0  0  0
  5 24  1  0  0  0  0
  6 24  1  0  0  0  0
  7 25  1  0  0  0  0
  8 25  1  0  0  0  0
  9 26  1  0  0  0  0
 10 26  1  0  0  0  0
 11 27  1  0  0  0  0
 12 27  1  0  0  0  0
 13 28  1  0  0  0  0
 14 28  1  0  0  0  0
 15 29  1  0  0  0  0
 16 29  1  0  0  0  0
 17 30  1  0  0  0  0
 18 30  1  0  0  0  0
 19 30  1  0  0  0  0
 20 31  1  0  0  0  0
 21 31  1  0  0  0  0
 22 23  1  0  0  0  0
 22 24  1  0  0  0  0
 23 25  1  0  0  0  0
 24 26  1  0  0  0  0
 25 27  1  0  0  0  0
 26 28  1  0  0  0  0
 27 29  1  0  0  0  0
 28 30  1  0  0  0  0
 29 31  1  0  0  0  0
M  END
>  <INPUT>
DTXSID60190951

>  <FOUND_BY>
DSSTox_Substance_Id

>  <DTXSID>
DTXSID60190951

>  <PREFERRED_NAME>
1-H-Perfluorodecane

>  <CASRN>
375-97-3

>  <INCHIKEY>
DSNMEFYRPYNWJJ-UHFFFAOYSA-N

>  <IUPAC_NAME>
1,1,1,2,2,3,3,4,4,5,5,6,6,7,7,8,8,9,9,10,10-Henicosafluorodecane

>  <SMILES>
FC(F)C(F)(F)C(F)(F)C(F)(F)C(F)(F)C(F)(F)C(F)(F)C(F)(F)C(F)(F)C(F)(F)F

>  <INCHI_STRING>
InChI=1S/C10HF21/c11-1(12)2(13,14)3(15,16)4(17,18)5(19,20)6(21,22)7(23,24)8(25,26)9(27,28)10(29,30)31/h1H

>  <MOLECULAR_FORMULA>
C10HF21

>  <AVERAGE_MASS>
520.084

>  <MONOISOTOPIC_MASS>
519.974291455

>  <MOL_FILE>
MOL_FILE

$$$$

  -INDIGO-02112615072D

 40 39  0  0  0  0  0  0  0  0999 V2000
    2.0108    0.6702    0.0000 F   0  0  0  0  0  0  0  0  0  0  0  0
   -0.1546    2.0831    0.0000 F   0  0  0  0  0  0  0  0  0  0  0  0
    0.5565    1.2063    0.0000 F   0  0  0  0  0  0  0  0  0  0  0  0
   -0.5052   -1.6806    0.0000 F   0  0  0  0  0  0  0  0  0  0  0  0
   -3.4544    3.0939    0.0000 F   0  0  0  0  0  0  0  0  0  0  0  0
   -0.4124    3.6095    0.0000 F   0  0  0  0  0  0  0  0  0  0  0  0
    2.3823   -2.7638    0.0000 F   0  0  0  0  0  0  0  0  0  0  0  0
    3.4649    0.1336    0.0000 F   0  0  0  0  0  0  0  0  0  0  0  0
    4.3726   -1.8457    0.0000 F   0  0  0  0  0  0  0  0  0  0  0  0
   -4.0010    2.2581    0.0000 F   0  0  0  0  0  0  0  0  0  0  0  0
   -2.2686   -0.2782    0.0000 F   0  0  0  0  0  0  0  0  0  0  0  0
   -4.3726    0.3092    0.0000 F   0  0  0  0  0  0  0  0  0  0  0  0
    2.7428   -3.7432    0.0000 F   0  0  0  0  0  0  0  0  0  0  0  0
   -0.3402   -3.7432    0.0000 F   0  0  0  0  0  0  0  0  0  0  0  0
    2.7428   -5.2902    0.0000 F   0  0  0  0  0  0  0  0  0  0  0  0
   -0.3402   -5.2902    0.0000 F   0  0  0  0  0  0  0  0  0  0  0  0
   -0.0099    4.6718    0.0000 F   0  0  0  0  0  0  0  0  0  0  0  0
    2.7428   -6.8371    0.0000 F   0  0  0  0  0  0  0  0  0  0  0  0
   -0.3402   -6.8371    0.0000 F   0  0  0  0  0  0  0  0  0  0  0  0
    1.1959   -8.3847    0.0000 F   0  0  0  0  0  0  0  0  0  0  0  0
    1.1649    5.6512    0.0000 F   0  0  0  0  0  0  0  0  0  0  0  0
   -0.7939    8.0335    0.0000 F   0  0  0  0  0  0  0  0  0  0  0  0
    1.3714    7.8275    0.0000 F   0  0  0  0  0  0  0  0  0  0  0  0
   -1.4128    0.2987    0.0000 O   0  0  0  0  0  0  0  0  0  0  0  0
    0.9281   -2.2173    0.0000 O   0  0  0  0  0  0  0  0  0  0  0  0
   -2.1963    4.8777    0.0000 O   0  0  0  0  0  0  0  0  0  0  0  0
   -1.8976    8.3847    0.0000 O   0  0  0  0  0  0  0  0  0  0  0  0
   -3.6301    6.3529    0.0000 O   0  0  0  0  0  0  0  0  0  0  0  0
    1.4747   -0.7735    0.0000 C   0  0  0  0  0  0  0  0  0  0  0  0
   -1.6806    1.8252    0.0000 C   0  0  0  0  0  0  0  0  0  0  0  0
    0.0204   -0.2263    0.0000 C   0  0  0  0  0  0  0  0  0  0  0  0
   -1.9384    3.3518    0.0000 C   0  0  0  0  0  0  0  0  0  0  0  0
    2.9184   -1.3096    0.0000 C   0  0  0  0  0  0  0  0  0  0  0  0
   -3.0216    1.0622    0.0000 C   0  0  0  0  0  0  0  0  0  0  0  0
    1.1959   -3.7432    0.0000 C   0  0  0  0  0  0  0  0  0  0  0  0
    1.1959   -5.2902    0.0000 C   0  0  0  0  0  0  0  0  0  0  0  0
   -0.9999    5.8576    0.0000 C   0  0  0  0  0  0  0  0  0  0  0  0
    1.1959   -6.8371    0.0000 C   0  0  0  0  0  0  0  0  0  0  0  0
    0.1855    6.8476    0.0000 C   0  0  0  0  0  0  0  0  0  0  0  0
   -2.1758    6.8685    0.0000 C   0  0  0  0  0  0  0  0  0  0  0  0
  1 29  1  0  0  0  0
  2 30  1  0  0  0  0
  3 31  1  0  0  0  0
  4 31  1  0  0  0  0
  5 32  1  0  0  0  0
  6 32  1  0  0  0  0
  7 33  1  0  0  0  0
  8 33  1  0  0  0  0
  9 33  1  0  0  0  0
 10 34  1  0  0  0  0
 11 34  1  0  0  0  0
 12 34  1  0  0  0  0
 13 35  1  0  0  0  0
 14 35  1  0  0  0  0
 15 36  1  0  0  0  0
 16 36  1  0  0  0  0
 17 37  1  0  0  0  0
 18 38  1  0  0  0  0
 19 38  1  0  0  0  0
 20 38  1  0  0  0  0
 21 39  1  0  0  0  0
 22 39  1  0  0  0  0
 23 39  1  0  0  0  0
 24 30  1  0  0  0  0
 24 31  1  0  0  0  0
 25 29  1  0  0  0  0
 25 35  1  0  0  0  0
 26 32  1  0  0  0  0
 26 37  1  0  0  0  0
 27 40  1  0  0  0  0
 28 40  2  0  0  0  0
 29 31  1  0  0  0  0
 29 33  1  0  0  0  0
 30 32  1  0  0  0  0
 30 34  1  0  0  0  0
 35 36  1  0  0  0  0
 36 38  1  0  0  0  0
 37 39  1  0  0  0  0
 37 40  1  0  0  0  0
M  END
>  <INPUT>
DTXSID70276659

>  <FOUND_BY>
DSSTox_Substance_Id

>  <DTXSID>
DTXSID70276659

>  <PREFERRED_NAME>
Perfluoro-(2,5,8-trimethyl-3,6,9-trioxadodecanoic) acid

>  <CASRN>
65294-16-8

>  <INCHIKEY>
HPNULWLLEOKCID-UHFFFAOYNA-N

>  <IUPAC_NAME>
2,3,3,3-Tetrafluoro-2-{1,1,2,3,3,3-hexafluoro-2-[1,1,2,3,3,3-hexafluoro-2-(heptafluoropropoxy)propoxy]propoxy}propanoic acid

>  <SMILES>
OC(=O)C(F)(OC(F)(F)C(F)(OC(F)(F)C(F)(OC(F)(F)C(F)(F)C(F)(F)F)C(F)(F)F)C(F)(F)F)C(F)(F)F

>  <INCHI_STRING>
InChI=1/C12HF23O5/c13-2(1(36)37,6(18,19)20)38-11(32,33)4(16,8(24,25)26)40-12(34,35)5(17,9(27,28)29)39-10(30,31)3(14,15)7(21,22)23/h(H,36,37)


>  <MOLECULAR_FORMULA>
C12HF23O5

>  <AVERAGE_MASS>
662.098

>  <MONOISOTOPIC_MASS>
661.945670881

>  <MOL_FILE>
MOL_FILE

$$$$

  -INDIGO-02112615072D

 19 18  0  0  0  0  0  0  0  0999 V2000
    6.3112    0.8454    0.0000 F   0  0  0  0  0  0  0  0  0  0  0  0
    7.8512   -1.8219    0.0000 F   0  0  0  0  0  0  0  0  0  0  0  0
    7.6449    1.6154    0.0000 F   0  0  0  0  0  0  0  0  0  0  0  0
    9.1849   -1.0519    0.0000 F   0  0  0  0  0  0  0  0  0  0  0  0
    4.9775    0.0754    0.0000 F   0  0  0  0  0  0  0  0  0  0  0  0
    6.5175   -2.5919    0.0000 F   0  0  0  0  0  0  0  0  0  0  0  0
   10.5187   -0.2819    0.0000 F   0  0  0  0  0  0  0  0  0  0  0  0
    8.9785    2.3856    0.0000 F   0  0  0  0  0  0  0  0  0  0  0  0
    3.0800   -2.7983    0.0000 F   0  0  0  0  0  0  0  0  0  0  0  0
    3.6437   -0.6946    0.0000 F   0  0  0  0  0  0  0  0  0  0  0  0
    5.1837   -3.3619    0.0000 F   0  0  0  0  0  0  0  0  0  0  0  0
   12.4161    1.0519    0.0000 F   0  0  0  0  0  0  0  0  0  0  0  0
   11.0824    3.3619    0.0000 F   0  0  0  0  0  0  0  0  0  0  0  0
    7.0812   -0.4881    0.0000 C   0  0  0  0  0  0  0  0  0  0  0  0
    8.4149    0.2819    0.0000 C   0  0  0  0  0  0  0  0  0  0  0  0
    5.7475   -1.2581    0.0000 C   0  0  0  0  0  0  0  0  0  0  0  0
    9.7485    1.0519    0.0000 C   0  0  0  0  0  0  0  0  0  0  0  0
    4.4137   -2.0281    0.0000 C   0  0  0  0  0  0  0  0  0  0  0  0
   11.0824    1.8219    0.0000 C   0  0  0  0  0  0  0  0  0  0  0  0
  1 14  1  0  0  0  0
  2 14  1  0  0  0  0
  3 15  1  0  0  0  0
  4 15  1  0  0  0  0
  5 16  1  0  0  0  0
  6 16  1  0  0  0  0
  7 17  1  0  0  0  0
  8 17  1  0  0  0  0
  9 18  1  0  0  0  0
 10 18  1  0  0  0  0
 11 18  1  0  0  0  0
 12 19  1  0  0  0  0
 13 19  1  0  0  0  0
 14 15  1  0  0  0  0
 14 16  1  0  0  0  0
 15 17  1  0  0  0  0
 16 18  1  0  0  0  0
 17 19  1  0  0  0  0
M  END
>  <INPUT>
DTXSID20188995

>  <FOUND_BY>
DSSTox_Substance_Id

>  <DTXSID>
DTXSID20188995

>  <PREFERRED_NAME>
1H-Perfluorohexane

>  <CASRN>
355-37-3

>  <INCHIKEY>
XJSRKJAHJGCPGC-UHFFFAOYSA-N

>  <IUPAC_NAME>
1,1,1,2,2,3,3,4,4,5,5,6,6-Tridecafluorohexane

>  <SMILES>
FC(F)C(F)(F)C(F)(F)C(F)(F)C(F)(F)C(F)(F)F

>  <INCHI_STRING>
InChI=1S/C6HF13/c7-1(8)2(9,10)3(11,12)4(13,14)5(15,16)6(17,18)19/h1H

>  <MOLECULAR_FORMULA>
C6HF13

>  <AVERAGE_MASS>
320.053

>  <MONOISOTOPIC_MASS>
319.987066151

>  <MOL_FILE>
MOL_FILE

$$$$

  -INDIGO-02112615072D

 13 12  0  0  0  0  0  0  0  0999 V2000
    6.6962   -0.8732    0.0000 F   0  0  0  0  0  0  0  0  0  0  0  0
    6.6962    2.2069    0.0000 F   0  0  0  0  0  0  0  0  0  0  0  0
    8.2362   -0.8732    0.0000 F   0  0  0  0  0  0  0  0  0  0  0  0
    8.2363    2.2069    0.0000 F   0  0  0  0  0  0  0  0  0  0  0  0
   11.3163    0.6668    0.0000 F   0  0  0  0  0  0  0  0  0  0  0  0
    9.7763   -0.8732    0.0000 F   0  0  0  0  0  0  0  0  0  0  0  0
    9.7763    2.2069    0.0000 F   0  0  0  0  0  0  0  0  0  0  0  0
    2.8461    2.0007    0.0000 O   0  0  0  0  0  0  0  0  0  0  0  0
    6.6962    0.6669    0.0000 C   0  0  0  0  0  0  0  0  0  0  0  0
    8.2362    0.6669    0.0000 C   0  0  0  0  0  0  0  0  0  0  0  0
    5.1562    0.6669    0.0000 C   0  0  0  0  0  0  0  0  0  0  0  0
    9.7763    0.6668    0.0000 C   0  0  0  0  0  0  0  0  0  0  0  0
    4.3863    2.0005    0.0000 C   0  0  0  0  0  0  0  0  0  0  0  0
  1  9  1  0  0  0  0
  2  9  1  0  0  0  0
  3 10  1  0  0  0  0
  4 10  1  0  0  0  0
  5 12  1  0  0  0  0
  6 12  1  0  0  0  0
  7 12  1  0  0  0  0
  8 13  1  0  0  0  0
  9 10  1  0  0  0  0
  9 11  1  0  0  0  0
 10 12  1  0  0  0  0
 11 13  1  0  0  0  0
M  END
>  <INPUT>
DTXSID50382141

>  <FOUND_BY>
DSSTox_Substance_Id

>  <DTXSID>
DTXSID50382141

>  <PREFERRED_NAME>
Fluorotelomer alcohol 3:2

>  <CASRN>
755-40-8

>  <INCHIKEY>
ROTSWXZIBBJEPH-UHFFFAOYSA-N

>  <IUPAC_NAME>
3,3,4,4,5,5,5-Heptafluoropentan-1-ol

>  <SMILES>
OCCC(F)(F)C(F)(F)C(F)(F)F

>  <INCHI_STRING>
InChI=1S/C5H5F7O/c6-3(7,1-2-13)4(8,9)5(10,11)12/h13H,1-2H2


>  <MOLECULAR_FORMULA>
C5H5F7O

>  <AVERAGE_MASS>
214.083

>  <MONOISOTOPIC_MASS>
214.022861922

>  <MOL_FILE>
MOL_FILE

$$$$

  -INDIGO-02112615072D

 18 17  0  0  0  0  0  0  0  0999 V2000
    8.8705    1.7707    0.0000 F   0  0  0  0  0  0  0  0  0  0  0  0
    8.8705   -1.3093    0.0000 F   0  0  0  0  0  0  0  0  0  0  0  0
   10.4105    1.7707    0.0000 F   0  0  0  0  0  0  0  0  0  0  0  0
   10.4105   -1.3093    0.0000 F   0  0  0  0  0  0  0  0  0  0  0  0
   11.9505    1.7707    0.0000 F   0  0  0  0  0  0  0  0  0  0  0  0
   11.9505   -1.3093    0.0000 F   0  0  0  0  0  0  0  0  0  0  0  0
   15.0305    0.2307    0.0000 F   0  0  0  0  0  0  0  0  0  0  0  0
   13.4905    1.7707    0.0000 F   0  0  0  0  0  0  0  0  0  0  0  0
   13.4905   -1.3093    0.0000 F   0  0  0  0  0  0  0  0  0  0  0  0
    7.3305   -2.4367    0.0000 O   0  0  0  0  0  0  0  0  0  0  0  0
    4.2505   -2.4367    0.0000 O   0  0  0  0  0  0  0  0  0  0  0  0
    8.8705    0.2307    0.0000 C   0  0  0  0  0  0  0  0  0  0  0  0
   10.4105    0.2307    0.0000 C   0  0  0  0  0  0  0  0  0  0  0  0
    7.3305    0.2307    0.0000 C   0  0  0  0  0  0  0  0  0  0  0  0
   11.9505    0.2307    0.0000 C   0  0  0  0  0  0  0  0  0  0  0  0
    6.5605   -1.1030    0.0000 C   0  0  0  0  0  0  0  0  0  0  0  0
   13.4905    0.2307    0.0000 C   0  0  0  0  0  0  0  0  0  0  0  0
    5.0205   -1.1030    0.0000 C   0  0  0  0  0  0  0  0  0  0  0  0
  1 12  1  0  0  0  0
  2 12  1  0  0  0  0
  3 13  1  0  0  0  0
  4 13  1  0  0  0  0
  5 15  1  0  0  0  0
  6 15  1  0  0  0  0
  7 17  1  0  0  0  0
  8 17  1  0  0  0  0
  9 17  1  0  0  0  0
 10 16  1  0  0  0  0
 11 18  1  0  0  0  0
 12 13  1  0  0  0  0
 12 14  1  0  0  0  0
 13 15  1  0  0  0  0
 14 16  1  0  0  0  0
 15 17  1  0  0  0  0
 16 18  1  0  0  0  0
M  END
>  <INPUT>
DTXSID10382147

>  <FOUND_BY>
DSSTox_Substance_Id

>  <DTXSID>
DTXSID10382147

>  <PREFERRED_NAME>
3-(Perfluoro-2-butyl)propane-1,2-diol

>  <CASRN>
125070-38-4

>  <INCHIKEY>
FAQXMAJQQVDRQM-UHFFFAOYNA-N

>  <IUPAC_NAME>
4,4,5,5,6,6,7,7,7-Nonafluoroheptane-1,2-diol

>  <SMILES>
OCC(O)CC(F)(F)C(F)(F)C(F)(F)C(F)(F)F

>  <INCHI_STRING>
InChI=1/C7H7F9O2/c8-4(9,1-3(18)2-17)5(10,11)6(12,13)7(14,15)16/h3,17-18H,1-2H2


>  <MOLECULAR_FORMULA>
C7H7F9O2

>  <AVERAGE_MASS>
294.117

>  <MONOISOTOPIC_MASS>
294.030232932

>  <MOL_FILE>
MOL_FILE

$$$$

  -INDIGO-02112615072D

 16 15  0  0  0  0  0  0  0  0999 V2000
    7.1381    0.9486    0.0000 F   0  0  0  0  0  0  0  0  0  0  0  0
    8.6781   -1.7186    0.0000 F   0  0  0  0  0  0  0  0  0  0  0  0
   10.0117   -0.9486    0.0000 F   0  0  0  0  0  0  0  0  0  0  0  0
    8.4717    1.7186    0.0000 F   0  0  0  0  0  0  0  0  0  0  0  0
    5.8044    0.1786    0.0000 F   0  0  0  0  0  0  0  0  0  0  0  0
    7.3444   -2.4886    0.0000 F   0  0  0  0  0  0  0  0  0  0  0  0
   11.3456   -0.1786    0.0000 F   0  0  0  0  0  0  0  0  0  0  0  0
    9.8056    2.4886    0.0000 F   0  0  0  0  0  0  0  0  0  0  0  0
    3.9069   -1.1551    0.0000 O   0  0  0  0  0  0  0  0  0  0  0  0
   13.2429    1.1551    0.0000 O   0  0  0  0  0  0  0  0  0  0  0  0
    7.9081   -0.3851    0.0000 C   0  0  0  0  0  0  0  0  0  0  0  0
    9.2417    0.3851    0.0000 C   0  0  0  0  0  0  0  0  0  0  0  0
    6.5744   -1.1551    0.0000 C   0  0  0  0  0  0  0  0  0  0  0  0
   10.5756    1.1551    0.0000 C   0  0  0  0  0  0  0  0  0  0  0  0
    5.2407   -1.9251    0.0000 C   0  0  0  0  0  0  0  0  0  0  0  0
   11.9091    1.9251    0.0000 C   0  0  0  0  0  0  0  0  0  0  0  0
  1 11  1  0  0  0  0
  2 11  1  0  0  0  0
  3 12  1  0  0  0  0
  4 12  1  0  0  0  0
  5 13  1  0  0  0  0
  6 13  1  0  0  0  0
  7 14  1  0  0  0  0
  8 14  1  0  0  0  0
  9 15  1  0  0  0  0
 10 16  1  0  0  0  0
 11 12  1  0  0  0  0
 11 13  1  0  0  0  0
 12 14  1  0  0  0  0
 13 15  1  0  0  0  0
 14 16  1  0  0  0  0
M  END
>  <INPUT>
DTXSID60188999

>  <FOUND_BY>
DSSTox_Substance_Id

>  <DTXSID>
DTXSID60188999

>  <PREFERRED_NAME>
1H,1H,6H,6H-Perfluoro-1,6-hexanediol

>  <CASRN>
355-74-8

>  <INCHIKEY>
NHEKBXPLFJSSBZ-UHFFFAOYSA-N

>  <IUPAC_NAME>
2,2,3,3,4,4,5,5-Octafluorohexane-1,6-diol

>  <SMILES>
OCC(F)(F)C(F)(F)C(F)(F)C(F)(F)CO

>  <INCHI_STRING>
InChI=1S/C6H6F8O2/c7-3(8,1-15)5(11,12)6(13,14)4(9,10)2-16/h15-16H,1-2H2

>  <MOLECULAR_FORMULA>
C6H6F8O2

>  <AVERAGE_MASS>
262.099

>  <MONOISOTOPIC_MASS>
262.024004737

>  <MOL_FILE>
MOL_FILE

$$$$

  -INDIGO-02112615072D

 16 15  0  0  0  0  0  0  0  0999 V2000
    3.8500   -1.3337    0.0000 C   0  0  0  0  0  0  0  0  0  0  0  0
    5.3900   -1.3337    0.0000 C   0  0  0  0  0  0  0  0  0  0  0  0
    6.9300   -1.3337    0.0000 C   0  0  0  0  0  0  0  0  0  0  0  0
    8.4700   -1.3337    0.0000 C   0  0  0  0  0  0  0  0  0  0  0  0
   10.0100   -1.3337    0.0000 F   0  0  0  0  0  0  0  0  0  0  0  0
    8.4700    0.2063    0.0000 F   0  0  0  0  0  0  0  0  0  0  0  0
    8.4700   -2.8737    0.0000 F   0  0  0  0  0  0  0  0  0  0  0  0
    6.9300    0.2063    0.0000 F   0  0  0  0  0  0  0  0  0  0  0  0
    6.9300   -2.8737    0.0000 F   0  0  0  0  0  0  0  0  0  0  0  0
    5.3900    0.2063    0.0000 F   0  0  0  0  0  0  0  0  0  0  0  0
    5.3900   -2.8737    0.0000 F   0  0  0  0  0  0  0  0  0  0  0  0
    3.8500    0.2063    0.0000 F   0  0  0  0  0  0  0  0  0  0  0  0
    3.8500   -2.8737    0.0000 F   0  0  0  0  0  0  0  0  0  0  0  0
    2.3100   -1.3337    0.0000 O   0  0  0  0  0  0  0  0  0  0  0  0
    1.5400    0.0000    0.0000 C   0  0  0  0  0  0  0  0  0  0  0  0
    0.0000    0.0000    0.0000 C   0  0  0  0  0  0  0  0  0  0  0  0
  1  2  1  0  0  0  0
  2  3  1  0  0  0  0
  3  4  1  0  0  0  0
  4  5  1  0  0  0  0
  4  6  1  0  0  0  0
  4  7  1  0  0  0  0
  3  8  1  0  0  0  0
  3  9  1  0  0  0  0
  2 10  1  0  0  0  0
  2 11  1  0  0  0  0
  1 12  1  0  0  0  0
  1 13  1  0  0  0  0
  1 14  1  0  0  0  0
 14 15  1  0  0  0  0
 15 16  1  0  0  0  0
M  END
>  <INPUT>
DTXSID0073118

>  <FOUND_BY>
DSSTox_Substance_Id

>  <DTXSID>
DTXSID0073118

>  <PREFERRED_NAME>
Ethyl perfluorobutyl ether

>  <CASRN>
163702-05-4

>  <INCHIKEY>
DFUYAWQUODQGFF-UHFFFAOYSA-N

>  <IUPAC_NAME>
1-Ethoxy-1,1,2,2,3,3,4,4,4-nonafluorobutane

>  <SMILES>
CCOC(F)(F)C(F)(F)C(F)(F)C(F)(F)F

>  <INCHI_STRING>
InChI=1S/C6H5F9O/c1-2-16-6(14,15)4(9,10)3(7,8)5(11,12)13/h2H2,1H3


>  <MOLECULAR_FORMULA>
C6H5F9O

>  <AVERAGE_MASS>
264.091

>  <MONOISOTOPIC_MASS>
264.019668248

>  <MOL_FILE>
MOL_FILE

$$$$

  -INDIGO-02112615072D

 19 18  0  0  0  0  0  0  0  0999 V2000
    3.0800    0.0000    0.0000 C   0  0  0  0  0  0  0  0  0  0  0  0
    3.8500   -1.3337    0.0000 O   0  0  0  0  0  0  0  0  0  0  0  0
    3.8500    1.3337    0.0000 C   0  0  0  0  0  0  0  0  0  0  0  0
    4.6200    2.6673    0.0000 C   0  0  0  0  0  0  0  0  0  0  0  0
    5.3900    4.0010    0.0000 F   0  0  0  0  0  0  0  0  0  0  0  0
    3.2863    3.4373    0.0000 F   0  0  0  0  0  0  0  0  0  0  0  0
    5.9537    1.8973    0.0000 F   0  0  0  0  0  0  0  0  0  0  0  0
    2.5163    2.1037    0.0000 F   0  0  0  0  0  0  0  0  0  0  0  0
    5.1837    0.5637    0.0000 F   0  0  0  0  0  0  0  0  0  0  0  0
    1.5400    0.0000    0.0000 C   0  0  0  0  0  0  0  0  0  0  0  0
    1.5400   -1.5400    0.0000 C   0  0  0  0  0  0  0  0  0  0  0  0
    1.5400   -3.0800    0.0000 F   0  0  0  0  0  0  0  0  0  0  0  0
    0.0000   -1.5400    0.0000 F   0  0  0  0  0  0  0  0  0  0  0  0
    3.0800   -1.5400    0.0000 F   0  0  0  0  0  0  0  0  0  0  0  0
    1.5400    1.5400    0.0000 C   0  0  0  0  0  0  0  0  0  0  0  0
    0.9150    3.1217    0.0000 F   0  0  0  0  0  0  0  0  0  0  0  0
    0.0000    1.5400    0.0000 F   0  0  0  0  0  0  0  0  0  0  0  0
    2.4451    2.7858    0.0000 F   0  0  0  0  0  0  0  0  0  0  0  0
    0.0000    0.0000    0.0000 F   0  0  0  0  0  0  0  0  0  0  0  0
  1  2  2  0  0  0  0
  1  3  1  0  0  0  0
  3  4  1  0  0  0  0
  4  5  1  0  0  0  0
  4  6  1  0  0  0  0
  4  7  1  0  0  0  0
  3  8  1  0  0  0  0
  3  9  1  0  0  0  0
  1 10  1  0  0  0  0
 10 11  1  0  0  0  0
 11 12  1  0  0  0  0
 11 13  1  0  0  0  0
 11 14  1  0  0  0  0
 10 15  1  0  0  0  0
 15 16  1  0  0  0  0
 15 17  1  0  0  0  0
 15 18  1  0  0  0  0
 10 19  1  0  0  0  0
M  END
>  <INPUT>
DTXSID4074932

>  <FOUND_BY>
DSSTox_Substance_Id

>  <DTXSID>
DTXSID4074932

>  <PREFERRED_NAME>
Perfluoro-2-methyl-3-pentanone

>  <CASRN>
756-13-8

>  <INCHIKEY>
RMLFHPWPTXWZNJ-UHFFFAOYSA-N

>  <IUPAC_NAME>
1,1,1,2,2,4,5,5,5-Nonafluoro-4-(trifluoromethyl)pentan-3-one

>  <SMILES>
FC(F)(F)C(F)(F)C(=O)C(F)(C(F)(F)F)C(F)(F)F

>  <INCHI_STRING>
InChI=1S/C6F12O/c7-2(4(10,11)12,5(13,14)15)1(19)3(8,9)6(16,17)18


>  <MOLECULAR_FORMULA>
C6F12O

>  <AVERAGE_MASS>
316.046

>  <MONOISOTOPIC_MASS>
315.975752576

>  <MOL_FILE>
MOL_FILE

$$$$

  -INDIGO-02112615072D

 11 10  0  0  0  0  0  0  0  0999 V2000
   -1.1274   -4.6199    0.0000 O   0  0  0  0  0  0  0  0  0  0  0  0
   -1.1274   -3.0800    0.0000 C   0  0  0  0  0  0  0  0  0  0  0  0
    0.2063   -2.3100    0.0000 C   0  0  0  0  0  0  0  0  0  0  0  0
    0.9763   -3.6437    0.0000 F   0  0  0  0  0  0  0  0  0  0  0  0
   -0.5637   -0.9763    0.0000 F   0  0  0  0  0  0  0  0  0  0  0  0
    1.5400   -1.5400    0.0000 C   0  0  0  0  0  0  0  0  0  0  0  0
    2.8737   -2.3100    0.0000 F   0  0  0  0  0  0  0  0  0  0  0  0
    1.5400    0.0000    0.0000 C   0  0  0  0  0  0  0  0  0  0  0  0
    1.5400    1.5400    0.0000 F   0  0  0  0  0  0  0  0  0  0  0  0
    3.0800    0.0000    0.0000 F   0  0  0  0  0  0  0  0  0  0  0  0
    0.0000    0.0000    0.0000 F   0  0  0  0  0  0  0  0  0  0  0  0
  1  2  1  0  0  0  0
  2  3  1  0  0  0  0
  3  4  1  0  0  0  0
  3  5  1  0  0  0  0
  3  6  1  0  0  0  0
  6  7  1  0  0  0  0
  6  8  1  0  0  0  0
  8  9  1  0  0  0  0
  8 10  1  0  0  0  0
  8 11  1  0  0  0  0
M  END
>  <INPUT>
DTXSID00870523

>  <FOUND_BY>
DSSTox_Substance_Id

>  <DTXSID>
DTXSID00870523

>  <PREFERRED_NAME>
1H,1H,3H-Perfluorobutanol

>  <CASRN>
382-31-0

>  <INCHIKEY>
LVFXLZRISXUAIL-UHFFFAOYNA-N

>  <IUPAC_NAME>
2,2,3,4,4,4-Hexafluorobutan-1-ol

>  <SMILES>
OCC(F)(F)C(F)C(F)(F)F

>  <INCHI_STRING>
InChI=1S/C4H4F6O/c5-2(4(8,9)10)3(6,7)1-11/h2,11H,1H2

>  <MOLECULAR_FORMULA>
C4H4F6O

>  <AVERAGE_MASS>
182.065

>  <MONOISOTOPIC_MASS>
182.016633727

>  <MOL_FILE>
MOL_FILE

$$$$

  -INDIGO-02112615072D

 22 21  0  0  0  0  0  0  0  0999 V2000
   13.7533   -1.4231    0.0000 Br  0  0  0  0  0  0  0  0  0  0  0  0
    8.3632   -1.6292    0.0000 F   0  0  0  0  0  0  0  0  0  0  0  0
    8.3632    1.4507    0.0000 F   0  0  0  0  0  0  0  0  0  0  0  0
    6.8232   -1.6295    0.0000 F   0  0  0  0  0  0  0  0  0  0  0  0
    6.8231    1.4507    0.0000 F   0  0  0  0  0  0  0  0  0  0  0  0
    9.9033   -1.6293    0.0000 F   0  0  0  0  0  0  0  0  0  0  0  0
    9.9032    1.4507    0.0000 F   0  0  0  0  0  0  0  0  0  0  0  0
    5.2831    1.4508    0.0000 F   0  0  0  0  0  0  0  0  0  0  0  0
    5.2830   -1.6293    0.0000 F   0  0  0  0  0  0  0  0  0  0  0  0
   11.4433   -1.6293    0.0000 F   0  0  0  0  0  0  0  0  0  0  0  0
   11.4433    1.4506    0.0000 F   0  0  0  0  0  0  0  0  0  0  0  0
    2.2031   -0.0893    0.0000 F   0  0  0  0  0  0  0  0  0  0  0  0
    3.7430    1.4508    0.0000 F   0  0  0  0  0  0  0  0  0  0  0  0
    3.7430   -1.6293    0.0000 F   0  0  0  0  0  0  0  0  0  0  0  0
    8.3631   -0.0894    0.0000 C   0  0  0  0  0  0  0  0  0  0  0  0
    6.8233   -0.0894    0.0000 C   0  0  0  0  0  0  0  0  0  0  0  0
    9.9032   -0.0894    0.0000 C   0  0  0  0  0  0  0  0  0  0  0  0
    5.2831   -0.0893    0.0000 C   0  0  0  0  0  0  0  0  0  0  0  0
   11.4432   -0.0894    0.0000 C   0  0  0  0  0  0  0  0  0  0  0  0
    3.7430   -0.0893    0.0000 C   0  0  0  0  0  0  0  0  0  0  0  0
   12.9834   -0.0893    0.0000 C   0  0  0  0  0  0  0  0  0  0  0  0
   13.7534    1.2444    0.0000 C   0  0  0  0  0  0  0  0  0  0  0  0
  1 21  1  0  0  0  0
  2 15  1  0  0  0  0
  3 15  1  0  0  0  0
  4 16  1  0  0  0  0
  5 16  1  0  0  0  0
  6 17  1  0  0  0  0
  7 17  1  0  0  0  0
  8 18  1  0  0  0  0
  9 18  1  0  0  0  0
 10 19  1  0  0  0  0
 11 19  1  0  0  0  0
 12 20  1  0  0  0  0
 13 20  1  0  0  0  0
 14 20  1  0  0  0  0
 15 16  1  0  0  0  0
 15 17  1  0  0  0  0
 16 18  1  0  0  0  0
 17 19  1  0  0  0  0
 18 20  1  0  0  0  0
 19 21  1  0  0  0  0
 21 22  2  0  0  0  0
M  END
>  <INPUT>
DTXSID20371305

>  <FOUND_BY>
DSSTox_Substance_Id

>  <DTXSID>
DTXSID20371305

>  <PREFERRED_NAME>
2-Bromo-2-(Perfluorohexyl)ethene

>  <CASRN>
51249-64-0

>  <INCHIKEY>
KSXRFZHNNOXBLE-UHFFFAOYSA-N

>  <IUPAC_NAME>
2-Bromo-3,3,4,4,5,5,6,6,7,7,8,8,8-tridecafluorooct-1-ene

>  <SMILES>
FC(F)(F)C(F)(F)C(F)(F)C(F)(F)C(F)(F)C(F)(F)C(Br)=C

>  <INCHI_STRING>
InChI=1S/C8H2BrF13/c1-2(9)3(10,11)4(12,13)5(14,15)6(16,17)7(18,19)8(20,21)22/h1H2


>  <MOLECULAR_FORMULA>
C8H2BrF13

>  <AVERAGE_MASS>
424.987

>  <MONOISOTOPIC_MASS>
423.913229

>  <MOL_FILE>
MOL_FILE

$$$$

  -INDIGO-02112615072D

 11 10  0  0  0  0  0  0  0  0999 V2000
    7.6449    1.3337    0.0000 F   0  0  0  0  0  0  0  0  0  0  0  0
    9.1849   -1.3337    0.0000 F   0  0  0  0  0  0  0  0  0  0  0  0
   11.0824    0.0000    0.0000 F   0  0  0  0  0  0  0  0  0  0  0  0
    9.7485    2.3100    0.0000 F   0  0  0  0  0  0  0  0  0  0  0  0
    3.0800    0.0000    0.0000 F   0  0  0  0  0  0  0  0  0  0  0  0
    4.4137   -2.3100    0.0000 F   0  0  0  0  0  0  0  0  0  0  0  0
    5.7475    0.0000    0.0000 O   0  0  0  0  0  0  0  0  0  0  0  0
    8.4149    0.0000    0.0000 C   0  0  0  0  0  0  0  0  0  0  0  0
    7.0812   -0.7700    0.0000 C   0  0  0  0  0  0  0  0  0  0  0  0
    9.7485    0.7700    0.0000 C   0  0  0  0  0  0  0  0  0  0  0  0
    4.4137   -0.7700    0.0000 C   0  0  0  0  0  0  0  0  0  0  0  0
  1  8  1  0  0  0  0
  2  8  1  0  0  0  0
  3 10  1  0  0  0  0
  4 10  1  0  0  0  0
  5 11  1  0  0  0  0
  6 11  1  0  0  0  0
  7  9  1  0  0  0  0
  7 11  1  0  0  0  0
  8  9  1  0  0  0  0
  8 10  1  0  0  0  0
M  END
>  <INPUT>
DTXSID60371783

>  <FOUND_BY>
DSSTox_Substance_Id

>  <DTXSID>
DTXSID60371783

>  <PREFERRED_NAME>
Difluoromethyl 2,2,3,3-tetrafluoropropyl ether

>  <CASRN>
35042-99-0

>  <INCHIKEY>
PCTQNZRJAGLDPD-UHFFFAOYSA-N

>  <IUPAC_NAME>
3-(Difluoromethoxy)-1,1,2,2-tetrafluoropropane

>  <SMILES>
FC(F)OCC(F)(F)C(F)F

>  <INCHI_STRING>
InChI=1S/C4H4F6O/c5-2(6)4(9,10)1-11-3(7)8/h2-3H,1H2

>  <MOLECULAR_FORMULA>
C4H4F6O

>  <AVERAGE_MASS>
182.065

>  <MONOISOTOPIC_MASS>
182.016633727

>  <MOL_FILE>
MOL_FILE

$$$$

  -INDIGO-02112615072D

 16 15  0  0  0  0  0  0  0  0999 V2000
    8.9785    1.4368    0.0000 F   0  0  0  0  0  0  0  0  0  0  0  0
   10.5187   -1.2305    0.0000 F   0  0  0  0  0  0  0  0  0  0  0  0
   12.4161    1.6432    0.0000 F   0  0  0  0  0  0  0  0  0  0  0  0
   10.3124    2.2070    0.0000 F   0  0  0  0  0  0  0  0  0  0  0  0
   11.8524   -0.4605    0.0000 F   0  0  0  0  0  0  0  0  0  0  0  0
    5.7475   -2.2070    0.0000 O   0  0  0  0  0  0  0  0  0  0  0  0
    8.4149   -2.2070    0.0000 O   0  0  0  0  0  0  0  0  0  0  0  0
    4.4137    0.1032    0.0000 C   0  0  0  0  0  0  0  0  0  0  0  0
    5.7475   -0.6668    0.0000 C   0  0  0  0  0  0  0  0  0  0  0  0
    3.0800    0.8732    0.0000 C   0  0  0  0  0  0  0  0  0  0  0  0
    3.6437   -1.2305    0.0000 C   0  0  0  0  0  0  0  0  0  0  0  0
    5.1837    1.4368    0.0000 C   0  0  0  0  0  0  0  0  0  0  0  0
    7.0812    0.1032    0.0000 C   0  0  0  0  0  0  0  0  0  0  0  0
    8.4149   -0.6668    0.0000 C   0  0  0  0  0  0  0  0  0  0  0  0
    9.7485    0.1032    0.0000 C   0  0  0  0  0  0  0  0  0  0  0  0
   11.0824    0.8732    0.0000 C   0  0  0  0  0  0  0  0  0  0  0  0
  1 15  1  0  0  0  0
  2 15  1  0  0  0  0
  3 16  1  0  0  0  0
  4 16  1  0  0  0  0
  5 16  1  0  0  0  0
  6  9  2  0  0  0  0
  7 14  2  0  0  0  0
  8  9  1  0  0  0  0
  8 10  1  0  0  0  0
  8 11  1  0  0  0  0
  8 12  1  0  0  0  0
  9 13  1  0  0  0  0
 13 14  1  0  0  0  0
 14 15  1  0  0  0  0
 15 16  1  0  0  0  0
M  END
>  <INPUT>
DTXSID30175730

>  <FOUND_BY>
DSSTox_Substance_Id

>  <DTXSID>
DTXSID30175730

>  <PREFERRED_NAME>
4H,4H-Perfluoro-6,6-dimethylheptane-3,5-dione

>  <CASRN>
2145-68-8

>  <INCHIKEY>
FTTQCEGWFGHNDU-UHFFFAOYSA-N

>  <IUPAC_NAME>
1,1,1,2,2-Pentafluoro-6,6-dimethylheptane-3,5-dione

>  <SMILES>
CC(C)(C)C(=O)CC(=O)C(F)(F)C(F)(F)F

>  <INCHI_STRING>
InChI=1S/C9H11F5O2/c1-7(2,3)5(15)4-6(16)8(10,11)9(12,13)14/h4H2,1-3H3

>  <MOLECULAR_FORMULA>
C9H11F5O2

>  <AVERAGE_MASS>
246.177

>  <MONOISOTOPIC_MASS>
246.067920409

>  <MOL_FILE>
MOL_FILE

$$$$

  -INDIGO-02112615072D

 19 18  0  0  0  0  0  0  0  0999 V2000
    8.9785    0.6668    0.0000 F   0  0  0  0  0  0  0  0  0  0  0  0
   10.5187   -2.0005    0.0000 F   0  0  0  0  0  0  0  0  0  0  0  0
   10.3124    1.4368    0.0000 F   0  0  0  0  0  0  0  0  0  0  0  0
   11.8524   -1.2305    0.0000 F   0  0  0  0  0  0  0  0  0  0  0  0
   11.6461    2.2070    0.0000 F   0  0  0  0  0  0  0  0  0  0  0  0
   13.1861   -0.4605    0.0000 F   0  0  0  0  0  0  0  0  0  0  0  0
   15.0834    2.4132    0.0000 F   0  0  0  0  0  0  0  0  0  0  0  0
   14.5197    0.3095    0.0000 F   0  0  0  0  0  0  0  0  0  0  0  0
   12.9797    2.9770    0.0000 F   0  0  0  0  0  0  0  0  0  0  0  0
    4.4137   -0.6668    0.0000 O   0  0  0  0  0  0  0  0  0  0  0  0
    5.7475   -2.9770    0.0000 O   0  0  0  0  0  0  0  0  0  0  0  0
    9.7485   -0.6668    0.0000 C   0  0  0  0  0  0  0  0  0  0  0  0
   11.0824    0.1032    0.0000 C   0  0  0  0  0  0  0  0  0  0  0  0
    8.4149   -1.4368    0.0000 C   0  0  0  0  0  0  0  0  0  0  0  0
   12.4161    0.8732    0.0000 C   0  0  0  0  0  0  0  0  0  0  0  0
    7.0812   -0.6668    0.0000 C   0  0  0  0  0  0  0  0  0  0  0  0
   13.7497    1.6432    0.0000 C   0  0  0  0  0  0  0  0  0  0  0  0
    5.7475   -1.4368    0.0000 C   0  0  0  0  0  0  0  0  0  0  0  0
    3.0800   -1.4368    0.0000 C   0  0  0  0  0  0  0  0  0  0  0  0
  1 12  1  0  0  0  0
  2 12  1  0  0  0  0
  3 13  1  0  0  0  0
  4 13  1  0  0  0  0
  5 15  1  0  0  0  0
  6 15  1  0  0  0  0
  7 17  1  0  0  0  0
  8 17  1  0  0  0  0
  9 17  1  0  0  0  0
 10 18  1  0  0  0  0
 10 19  1  0  0  0  0
 11 18  2  0  0  0  0
 12 13  1  0  0  0  0
 12 14  1  0  0  0  0
 13 15  1  0  0  0  0
 14 16  1  0  0  0  0
 15 17  1  0  0  0  0
 16 18  1  0  0  0  0
M  END
>  <INPUT>
DTXSID50441560

>  <FOUND_BY>
DSSTox_Substance_Id

>  <DTXSID>
DTXSID50441560

>  <PREFERRED_NAME>
Methyl 2H,2H,3H,3H-perfluoroheptanoate

>  <CASRN>
132424-36-3

>  <INCHIKEY>
XNPUIKGMNMTLOL-UHFFFAOYSA-N

>  <IUPAC_NAME>
Methyl 4,4,5,5,6,6,7,7,7-nonafluoroheptanoate

>  <SMILES>
COC(=O)CCC(F)(F)C(F)(F)C(F)(F)C(F)(F)F

>  <INCHI_STRING>
InChI=1S/C8H7F9O2/c1-19-4(18)2-3-5(9,10)6(11,12)7(13,14)8(15,16)17/h2-3H2,1H3

>  <MOLECULAR_FORMULA>
C8H7F9O2

>  <AVERAGE_MASS>
306.128

>  <MONOISOTOPIC_MASS>
306.030232932

>  <MOL_FILE>
MOL_FILE

$$$$

  -INDIGO-02112615072D

 18 17  0  0  0  0  0  0  0  0999 V2000
    7.6449    1.4368    0.0000 F   0  0  0  0  0  0  0  0  0  0  0  0
    9.1849   -1.2305    0.0000 F   0  0  0  0  0  0  0  0  0  0  0  0
    8.9785    2.2070    0.0000 F   0  0  0  0  0  0  0  0  0  0  0  0
   10.5187   -0.4605    0.0000 F   0  0  0  0  0  0  0  0  0  0  0  0
    6.3112    0.6668    0.0000 F   0  0  0  0  0  0  0  0  0  0  0  0
    7.8512   -2.0005    0.0000 F   0  0  0  0  0  0  0  0  0  0  0  0
   12.4161    2.4132    0.0000 F   0  0  0  0  0  0  0  0  0  0  0  0
   11.8524    0.3095    0.0000 F   0  0  0  0  0  0  0  0  0  0  0  0
   10.3124    2.9770    0.0000 F   0  0  0  0  0  0  0  0  0  0  0  0
    5.7475   -2.9770    0.0000 F   0  0  0  0  0  0  0  0  0  0  0  0
    3.0800   -1.4368    0.0000 F   0  0  0  0  0  0  0  0  0  0  0  0
    4.4137    0.8732    0.0000 F   0  0  0  0  0  0  0  0  0  0  0  0
    8.4149    0.1032    0.0000 C   0  0  0  0  0  0  0  0  0  0  0  0
    9.7485    0.8732    0.0000 C   0  0  0  0  0  0  0  0  0  0  0  0
    7.0812   -0.6668    0.0000 C   0  0  0  0  0  0  0  0  0  0  0  0
   11.0824    1.6432    0.0000 C   0  0  0  0  0  0  0  0  0  0  0  0
    5.7475   -1.4368    0.0000 C   0  0  0  0  0  0  0  0  0  0  0  0
    4.4137   -0.6668    0.0000 C   0  0  0  0  0  0  0  0  0  0  0  0
  1 13  1  0  0  0  0
  2 13  1  0  0  0  0
  3 14  1  0  0  0  0
  4 14  1  0  0  0  0
  5 15  1  0  0  0  0
  6 15  1  0  0  0  0
  7 16  1  0  0  0  0
  8 16  1  0  0  0  0
  9 16  1  0  0  0  0
 10 17  1  0  0  0  0
 11 18  1  0  0  0  0
 12 18  1  0  0  0  0
 13 14  1  0  0  0  0
 13 15  1  0  0  0  0
 14 16  1  0  0  0  0
 15 17  1  0  0  0  0
 17 18  2  0  0  0  0
M  END
>  <INPUT>
DTXSID00226440

>  <FOUND_BY>
DSSTox_Substance_Id

>  <DTXSID>
DTXSID00226440

>  <PREFERRED_NAME>
Perfluorohex-1-ene

>  <CASRN>
755-25-9

>  <INCHIKEY>
RMHCWMIZBMGHKV-UHFFFAOYSA-N

>  <IUPAC_NAME>
1,1,2,3,3,4,4,5,5,6,6,6-Dodecafluorohex-1-ene

>  <SMILES>
FC(F)=C(F)C(F)(F)C(F)(F)C(F)(F)C(F)(F)F

>  <INCHI_STRING>
InChI=1S/C6F12/c7-1(2(8)9)3(10,11)4(12,13)5(14,15)6(16,17)18

>  <MOLECULAR_FORMULA>
C6F12

>  <AVERAGE_MASS>
300.047

>  <MONOISOTOPIC_MASS>
299.980837956

>  <MOL_FILE>
MOL_FILE

$$$$

  -INDIGO-02112615072D

 19 18  0  0  0  0  0  0  0  0999 V2000
   11.5500   -1.3337    0.0000 F   0  0  0  0  0  0  0  0  0  0  0  0
   10.0100   -1.3337    0.0000 C   0  0  0  0  0  0  0  0  0  0  0  0
   10.0100    0.2063    0.0000 F   0  0  0  0  0  0  0  0  0  0  0  0
   10.0100   -2.8737    0.0000 F   0  0  0  0  0  0  0  0  0  0  0  0
    8.4700   -1.3337    0.0000 C   0  0  0  0  0  0  0  0  0  0  0  0
    8.4700    0.2063    0.0000 F   0  0  0  0  0  0  0  0  0  0  0  0
    8.4700   -2.8737    0.0000 F   0  0  0  0  0  0  0  0  0  0  0  0
    6.9300   -1.3337    0.0000 C   0  0  0  0  0  0  0  0  0  0  0  0
    6.9300    0.2063    0.0000 F   0  0  0  0  0  0  0  0  0  0  0  0
    6.9300   -2.8737    0.0000 F   0  0  0  0  0  0  0  0  0  0  0  0
    5.3900   -1.3337    0.0000 C   0  0  0  0  0  0  0  0  0  0  0  0
    5.3900    0.2063    0.0000 F   0  0  0  0  0  0  0  0  0  0  0  0
    5.3900   -2.8737    0.0000 F   0  0  0  0  0  0  0  0  0  0  0  0
    3.8500   -1.3337    0.0000 C   0  0  0  0  0  0  0  0  0  0  0  0
    3.8500    0.2063    0.0000 F   0  0  0  0  0  0  0  0  0  0  0  0
    3.8500   -2.8737    0.0000 F   0  0  0  0  0  0  0  0  0  0  0  0
    2.3100   -1.3337    0.0000 C   0  0  0  0  0  0  0  0  0  0  0  0
    1.5400    0.0000    0.0000 C   0  0  0  0  0  0  0  0  0  0  0  0
    0.0000    0.0000    0.0000 I   0  0  0  0  0  0  0  0  0  0  0  0
  1  2  1  0  0  0  0
  2  3  1  0  0  0  0
  2  4  1  0  0  0  0
  2  5  1  0  0  0  0
  5  6  1  0  0  0  0
  5  7  1  0  0  0  0
  5  8  1  0  0  0  0
  8  9  1  0  0  0  0
  8 10  1  0  0  0  0
  8 11  1  0  0  0  0
 11 12  1  0  0  0  0
 11 13  1  0  0  0  0
 11 14  1  0  0  0  0
 14 15  1  0  0  0  0
 14 16  1  0  0  0  0
 14 17  1  0  0  0  0
 17 18  1  0  0  0  0
 18 19  1  0  0  0  0
M  END
>  <INPUT>
DTXSID9061881

>  <FOUND_BY>
DSSTox_Substance_Id

>  <DTXSID>
DTXSID9061881

>  <PREFERRED_NAME>
1-Iodo-1H,1H,2H,2H-perfluoroheptane

>  <CASRN>
1682-31-1

>  <INCHIKEY>
KEHJVWWDDAAVHB-UHFFFAOYSA-N

>  <IUPAC_NAME>
1,1,1,2,2,3,3,4,4,5,5-Undecafluoro-7-iodoheptane

>  <SMILES>
FC(F)(F)C(F)(F)C(F)(F)C(F)(F)C(F)(F)CCI

>  <INCHI_STRING>
InChI=1S/C7H4F11I/c8-3(9,1-2-19)4(10,11)5(12,13)6(14,15)7(16,17)18/h1-2H2

>  <MOLECULAR_FORMULA>
C7H4F11I

>  <AVERAGE_MASS>
423.996

>  <MONOISOTOPIC_MASS>
423.9182

>  <MOL_FILE>
MOL_FILE

$$$$

  -INDIGO-02112615072D

 27 26  0  0  0  0  0  0  0  0999 V2000
    0.7701   -1.7186    0.0000 F   0  0  0  0  0  0  0  0  0  0  0  0
   -0.7701    0.9486    0.0000 F   0  0  0  0  0  0  0  0  0  0  0  0
   -0.5636   -2.4886    0.0000 F   0  0  0  0  0  0  0  0  0  0  0  0
   -2.1036    0.1786    0.0000 F   0  0  0  0  0  0  0  0  0  0  0  0
    2.1038   -0.9486    0.0000 F   0  0  0  0  0  0  0  0  0  0  0  0
    0.5638    1.7186    0.0000 F   0  0  0  0  0  0  0  0  0  0  0  0
   -1.8974   -3.2586    0.0000 F   0  0  0  0  0  0  0  0  0  0  0  0
   -3.4374   -0.5914    0.0000 F   0  0  0  0  0  0  0  0  0  0  0  0
    1.8976    2.4886    0.0000 F   0  0  0  0  0  0  0  0  0  0  0  0
    3.4376   -0.1786    0.0000 F   0  0  0  0  0  0  0  0  0  0  0  0
   -4.7711   -1.3614    0.0000 F   0  0  0  0  0  0  0  0  0  0  0  0
   -3.2309   -4.0286    0.0000 F   0  0  0  0  0  0  0  0  0  0  0  0
    4.7711    0.5914    0.0000 F   0  0  0  0  0  0  0  0  0  0  0  0
    3.2311    3.2586    0.0000 F   0  0  0  0  0  0  0  0  0  0  0  0
    6.6686    3.4651    0.0000 F   0  0  0  0  0  0  0  0  0  0  0  0
    6.1048    1.3614    0.0000 F   0  0  0  0  0  0  0  0  0  0  0  0
    4.5648    4.0286    0.0000 F   0  0  0  0  0  0  0  0  0  0  0  0
   -0.0001   -0.3851    0.0000 C   0  0  0  0  0  0  0  0  0  0  0  0
   -1.3336   -1.1551    0.0000 C   0  0  0  0  0  0  0  0  0  0  0  0
    1.3338    0.3851    0.0000 C   0  0  0  0  0  0  0  0  0  0  0  0
   -2.6674   -1.9251    0.0000 C   0  0  0  0  0  0  0  0  0  0  0  0
    2.6676    1.1551    0.0000 C   0  0  0  0  0  0  0  0  0  0  0  0
   -4.0009   -2.6951    0.0000 C   0  0  0  0  0  0  0  0  0  0  0  0
    4.0011    1.9251    0.0000 C   0  0  0  0  0  0  0  0  0  0  0  0
   -5.3348   -3.4651    0.0000 C   0  0  0  0  0  0  0  0  0  0  0  0
    5.3348    2.6951    0.0000 C   0  0  0  0  0  0  0  0  0  0  0  0
   -6.6686   -2.6951    0.0000 C   0  0  0  0  0  0  0  0  0  0  0  0
  1 18  1  0  0  0  0
  2 18  1  0  0  0  0
  3 19  1  0  0  0  0
  4 19  1  0  0  0  0
  5 20  1  0  0  0  0
  6 20  1  0  0  0  0
  7 21  1  0  0  0  0
  8 21  1  0  0  0  0
  9 22  1  0  0  0  0
 10 22  1  0  0  0  0
 11 23  1  0  0  0  0
 12 23  1  0  0  0  0
 13 24  1  0  0  0  0
 14 24  1  0  0  0  0
 15 26  1  0  0  0  0
 16 26  1  0  0  0  0
 17 26  1  0  0  0  0
 18 19  1  0  0  0  0
 18 20  1  0  0  0  0
 19 21  1  0  0  0  0
 20 22  1  0  0  0  0
 21 23  1  0  0  0  0
 22 24  1  0  0  0  0
 23 25  1  0  0  0  0
 24 26  1  0  0  0  0
 25 27  1  0  0  0  0
M  END
>  <INPUT>
DTXSID90880979

>  <FOUND_BY>
DSSTox_Substance_Id

>  <DTXSID>
DTXSID90880979

>  <PREFERRED_NAME>
(Perfluoro-n-octyl)ethane

>  <CASRN>
77117-48-7

>  <INCHIKEY>
JNAIMEWMJYVGEW-UHFFFAOYSA-N

>  <IUPAC_NAME>
1,1,1,2,2,3,3,4,4,5,5,6,6,7,7,8,8-Heptadecafluorodecane

>  <SMILES>
CCC(F)(F)C(F)(F)C(F)(F)C(F)(F)C(F)(F)C(F)(F)C(F)(F)C(F)(F)F

>  <INCHI_STRING>
InChI=1S/C10H5F17/c1-2-3(11,12)4(13,14)5(15,16)6(17,18)7(19,20)8(21,22)9(23,24)10(25,26)27/h2H2,1H3

>  <MOLECULAR_FORMULA>
C10H5F17

>  <AVERAGE_MASS>
448.123

>  <MONOISOTOPIC_MASS>
448.011978932

>  <MOL_FILE>
MOL_FILE

$$$$

  -INDIGO-02112615072D

 14 13  0  0  0  0  0  0  0  0999 V2000
    6.4507    2.1411    0.0000 F   0  0  0  0  0  0  0  0  0  0  0  0
    6.4507   -0.9389    0.0000 F   0  0  0  0  0  0  0  0  0  0  0  0
    7.9907    2.1411    0.0000 F   0  0  0  0  0  0  0  0  0  0  0  0
    7.9907   -0.9389    0.0000 F   0  0  0  0  0  0  0  0  0  0  0  0
   11.0707    0.6011    0.0000 F   0  0  0  0  0  0  0  0  0  0  0  0
    9.5307    2.1411    0.0000 F   0  0  0  0  0  0  0  0  0  0  0  0
    9.5307   -0.9389    0.0000 F   0  0  0  0  0  0  0  0  0  0  0  0
    1.8307   -2.0663    0.0000 O   0  0  0  0  0  0  0  0  0  0  0  0
    6.4507    0.6011    0.0000 C   0  0  0  0  0  0  0  0  0  0  0  0
    4.9107    0.6011    0.0000 C   0  0  0  0  0  0  0  0  0  0  0  0
    7.9907    0.6011    0.0000 C   0  0  0  0  0  0  0  0  0  0  0  0
    4.1407   -0.7326    0.0000 C   0  0  0  0  0  0  0  0  0  0  0  0
    9.5307    0.6011    0.0000 C   0  0  0  0  0  0  0  0  0  0  0  0
    2.6007   -0.7326    0.0000 C   0  0  0  0  0  0  0  0  0  0  0  0
  1  9  1  0  0  0  0
  2  9  1  0  0  0  0
  3 11  1  0  0  0  0
  4 11  1  0  0  0  0
  5 13  1  0  0  0  0
  6 13  1  0  0  0  0
  7 13  1  0  0  0  0
  8 14  1  0  0  0  0
  9 10  1  0  0  0  0
  9 11  1  0  0  0  0
 10 12  1  0  0  0  0
 11 13  1  0  0  0  0
 12 14  1  0  0  0  0
M  END
>  <INPUT>
DTXSID60379269

>  <FOUND_BY>
DSSTox_Substance_Id

>  <DTXSID>
DTXSID60379269

>  <PREFERRED_NAME>
3-(Perfluoropropyl)propanol

>  <CASRN>
679-02-7

>  <INCHIKEY>
VACKBPFJJWRSAO-UHFFFAOYSA-N

>  <IUPAC_NAME>
4,4,5,5,6,6,6-Heptafluorohexan-1-ol

>  <SMILES>
OCCCC(F)(F)C(F)(F)C(F)(F)F

>  <INCHI_STRING>
InChI=1S/C6H7F7O/c7-4(8,2-1-3-14)5(9,10)6(11,12)13/h14H,1-3H2


>  <MOLECULAR_FORMULA>
C6H7F7O

>  <AVERAGE_MASS>
228.11

>  <MONOISOTOPIC_MASS>
228.038511986

>  <MOL_FILE>
MOL_FILE

$$$$

  -INDIGO-02112615072D

 29 28  0  0  0  0  0  0  0  0999 V2000
    8.9785    1.3337    0.0000 F   0  0  0  0  0  0  0  0  0  0  0  0
   10.5187   -1.3337    0.0000 F   0  0  0  0  0  0  0  0  0  0  0  0
    7.6449    0.5637    0.0000 F   0  0  0  0  0  0  0  0  0  0  0  0
    9.1849   -2.1037    0.0000 F   0  0  0  0  0  0  0  0  0  0  0  0
   10.3124    2.1037    0.0000 F   0  0  0  0  0  0  0  0  0  0  0  0
   11.8524   -0.5637    0.0000 F   0  0  0  0  0  0  0  0  0  0  0  0
   13.1861    0.2065    0.0000 F   0  0  0  0  0  0  0  0  0  0  0  0
   11.6461    2.8737    0.0000 F   0  0  0  0  0  0  0  0  0  0  0  0
    6.3112   -0.2065    0.0000 F   0  0  0  0  0  0  0  0  0  0  0  0
    7.8512   -2.8737    0.0000 F   0  0  0  0  0  0  0  0  0  0  0  0
    4.9775   -0.9765    0.0000 F   0  0  0  0  0  0  0  0  0  0  0  0
    6.5175   -3.6437    0.0000 F   0  0  0  0  0  0  0  0  0  0  0  0
   14.5197    0.9765    0.0000 F   0  0  0  0  0  0  0  0  0  0  0  0
   12.9797    3.6437    0.0000 F   0  0  0  0  0  0  0  0  0  0  0  0
   16.4171    3.8500    0.0000 F   0  0  0  0  0  0  0  0  0  0  0  0
    3.0800   -3.8500    0.0000 F   0  0  0  0  0  0  0  0  0  0  0  0
   15.8534    1.7465    0.0000 F   0  0  0  0  0  0  0  0  0  0  0  0
   14.3134    4.4137    0.0000 F   0  0  0  0  0  0  0  0  0  0  0  0
    3.6437   -1.7465    0.0000 F   0  0  0  0  0  0  0  0  0  0  0  0
    5.1837   -4.4137    0.0000 F   0  0  0  0  0  0  0  0  0  0  0  0
    9.7485    0.0000    0.0000 C   0  0  0  0  0  0  0  0  0  0  0  0
   11.0824    0.7700    0.0000 C   0  0  0  0  0  0  0  0  0  0  0  0
    8.4149   -0.7700    0.0000 C   0  0  0  0  0  0  0  0  0  0  0  0
   12.4161    1.5400    0.0000 C   0  0  0  0  0  0  0  0  0  0  0  0
    7.0812   -1.5400    0.0000 C   0  0  0  0  0  0  0  0  0  0  0  0
   13.7497    2.3100    0.0000 C   0  0  0  0  0  0  0  0  0  0  0  0
    5.7475   -2.3100    0.0000 C   0  0  0  0  0  0  0  0  0  0  0  0
    4.4137   -3.0800    0.0000 C   0  0  0  0  0  0  0  0  0  0  0  0
   15.0834    3.0800    0.0000 C   0  0  0  0  0  0  0  0  0  0  0  0
  1 21  1  0  0  0  0
  2 21  1  0  0  0  0
  3 23  1  0  0  0  0
  4 23  1  0  0  0  0
  5 22  1  0  0  0  0
  6 22  1  0  0  0  0
  7 24  1  0  0  0  0
  8 24  1  0  0  0  0
  9 25  1  0  0  0  0
 10 25  1  0  0  0  0
 11 27  1  0  0  0  0
 12 27  1  0  0  0  0
 13 26  1  0  0  0  0
 14 26  1  0  0  0  0
 15 29  1  0  0  0  0
 16 28  1  0  0  0  0
 17 29  1  0  0  0  0
 18 29  1  0  0  0  0
 19 28  1  0  0  0  0
 20 28  1  0  0  0  0
 21 22  1  0  0  0  0
 21 23  1  0  0  0  0
 22 24  1  0  0  0  0
 23 25  1  0  0  0  0
 24 26  1  0  0  0  0
 25 27  1  0  0  0  0
 26 29  1  0  0  0  0
 27 28  1  0  0  0  0
M  END
>  <INPUT>
DTXSID60334479

>  <FOUND_BY>
DSSTox_Substance_Id

>  <DTXSID>
DTXSID60334479

>  <PREFERRED_NAME>
Perfluorononane

>  <CASRN>
375-96-2

>  <INCHIKEY>
UVWPNDVAQBNQBG-UHFFFAOYSA-N

>  <IUPAC_NAME>
Icosafluorononane

>  <SMILES>
FC(F)(F)C(F)(F)C(F)(F)C(F)(F)C(F)(F)C(F)(F)C(F)(F)C(F)(F)C(F)(F)F

>  <INCHI_STRING>
InChI=1S/C9F20/c10-1(11,2(12,13)4(16,17)6(20,21)8(24,25)26)3(14,15)5(18,19)7(22,23)9(27,28)29

>  <MOLECULAR_FORMULA>
C9F20

>  <AVERAGE_MASS>
488.067

>  <MONOISOTOPIC_MASS>
487.96806326

>  <MOL_FILE>
MOL_FILE

$$$$

  -INDIGO-02112615072D

 25 24  0  0  0  0  0  0  0  0999 V2000
    0.3854    0.6630    0.0000 C   0  0  0  0  0  0  0  0  0  0  0  0
   -1.1546    0.6551    0.0000 C   0  0  0  0  0  0  0  0  0  0  0  0
    1.9208    0.6624    0.0000 C   0  0  0  0  0  0  0  0  0  0  0  0
    0.3865    2.1984    0.0000 F   0  0  0  0  0  0  0  0  0  0  0  0
    0.3846   -0.8716    0.0000 F   0  0  0  0  0  0  0  0  0  0  0  0
   -2.6989    0.6612    0.0000 C   0  0  0  0  0  0  0  0  0  0  0  0
   -1.1628    2.1954    0.0000 F   0  0  0  0  0  0  0  0  0  0  0  0
   -1.1465   -0.8853    0.0000 F   0  0  0  0  0  0  0  0  0  0  0  0
    3.4704    0.6653    0.0000 C   0  0  0  0  0  0  0  0  0  0  0  0
    1.9178    2.2118    0.0000 F   0  0  0  0  0  0  0  0  0  0  0  0
    1.9290   -0.8779    0.0000 F   0  0  0  0  0  0  0  0  0  0  0  0
   -4.2484    0.6583    0.0000 C   0  0  0  0  0  0  0  0  0  0  0  0
   -2.6958   -0.8881    0.0000 F   0  0  0  0  0  0  0  0  0  0  0  0
   -2.7123    2.1926    0.0000 F   0  0  0  0  0  0  0  0  0  0  0  0
    4.2484   -0.6744    0.0000 C   0  0  0  0  0  0  0  0  0  0  0  0
   -5.7978    0.6553    0.0000 C   0  0  0  0  0  0  0  0  0  0  0  0
   -4.2454   -0.8910    0.0000 F   0  0  0  0  0  0  0  0  0  0  0  0
   -4.2566    2.1987    0.0000 F   0  0  0  0  0  0  0  0  0  0  0  0
   -5.8061    2.1959    0.0000 F   0  0  0  0  0  0  0  0  0  0  0  0
   -5.7949   -0.8940    0.0000 F   0  0  0  0  0  0  0  0  0  0  0  0
    7.3470   -0.6682    0.0000 O   0  0  0  0  0  0  0  0  0  0  0  0
    5.8061   -2.2118    0.0000 O   0  0  0  0  0  0  0  0  0  0  0  0
    5.7949    0.8778    0.0000 O   0  0  0  0  0  0  0  0  0  0  0  0
    5.7980   -0.6715    0.0000 S   0  0  0  0  0  0  0  0  0  0  0  0
   -7.3470    0.6522    0.0000 F   0  0  0  0  0  0  0  0  0  0  0  0
  1  2  1  0  0  0  0
  1  3  1  0  0  0  0
  1  4  1  0  0  0  0
  1  5  1  0  0  0  0
  2  6  1  0  0  0  0
  2  7  1  0  0  0  0
  2  8  1  0  0  0  0
  3  9  1  0  0  0  0
  3 10  1  0  0  0  0
  3 11  1  0  0  0  0
  6 12  1  0  0  0  0
  6 13  1  0  0  0  0
  6 14  1  0  0  0  0
  9 15  1  0  0  0  0
 12 16  1  0  0  0  0
 12 17  1  0  0  0  0
 12 18  1  0  0  0  0
 16 19  1  0  0  0  0
 16 20  1  0  0  0  0
 23 24  2  0  0  0  0
 22 24  2  0  0  0  0
 21 24  1  0  0  0  0
 15 24  1  0  0  0  0
 16 25  1  0  0  0  0
M  END
>  <INPUT>
DTXSID6067331

>  <FOUND_BY>
DSSTox_Substance_Id

>  <DTXSID>
DTXSID6067331

>  <PREFERRED_NAME>
6:2 Fluorotelomer sulfonic acid

>  <CASRN>
27619-97-2

>  <INCHIKEY>
VIONGDJUYAYOPU-UHFFFAOYSA-N

>  <IUPAC_NAME>
3,3,4,4,5,5,6,6,7,7,8,8,8-Tridecafluorooctane-1-sulfonic acid

>  <SMILES>
OS(=O)(=O)CCC(F)(F)C(F)(F)C(F)(F)C(F)(F)C(F)(F)C(F)(F)F

>  <INCHI_STRING>
InChI=1S/C8H5F13O3S/c9-3(10,1-2-25(22,23)24)4(11,12)5(13,14)6(15,16)7(17,18)8(19,20)21/h1-2H2,(H,22,23,24)


>  <MOLECULAR_FORMULA>
C8H5F13O3S

>  <AVERAGE_MASS>
428.16

>  <MONOISOTOPIC_MASS>
427.975181314

>  <MOL_FILE>
MOL_FILE

$$$$

  -INDIGO-02112615072D

 36 35  0  0  0  0  0  0  0  0999 V2000
   10.3124    1.3337    0.0000 F   0  0  0  0  0  0  0  0  0  0  0  0
   11.8524   -1.3337    0.0000 F   0  0  0  0  0  0  0  0  0  0  0  0
   11.6461    2.1037    0.0000 F   0  0  0  0  0  0  0  0  0  0  0  0
   13.1861   -0.5637    0.0000 F   0  0  0  0  0  0  0  0  0  0  0  0
    8.9785    0.5637    0.0000 F   0  0  0  0  0  0  0  0  0  0  0  0
   10.5187   -2.1037    0.0000 F   0  0  0  0  0  0  0  0  0  0  0  0
   14.5197    0.2065    0.0000 F   0  0  0  0  0  0  0  0  0  0  0  0
   12.9797    2.8737    0.0000 F   0  0  0  0  0  0  0  0  0  0  0  0
    7.6449   -0.2065    0.0000 F   0  0  0  0  0  0  0  0  0  0  0  0
    9.1849   -2.8737    0.0000 F   0  0  0  0  0  0  0  0  0  0  0  0
   15.8534    0.9765    0.0000 F   0  0  0  0  0  0  0  0  0  0  0  0
   14.3134    3.6437    0.0000 F   0  0  0  0  0  0  0  0  0  0  0  0
    6.3112   -0.9765    0.0000 F   0  0  0  0  0  0  0  0  0  0  0  0
    7.8512   -3.6437    0.0000 F   0  0  0  0  0  0  0  0  0  0  0  0
   17.1873    1.7465    0.0000 F   0  0  0  0  0  0  0  0  0  0  0  0
   15.6471    4.4137    0.0000 F   0  0  0  0  0  0  0  0  0  0  0  0
    4.9775   -1.7465    0.0000 F   0  0  0  0  0  0  0  0  0  0  0  0
    6.5175   -4.4137    0.0000 F   0  0  0  0  0  0  0  0  0  0  0  0
   18.5209    2.5165    0.0000 F   0  0  0  0  0  0  0  0  0  0  0  0
   16.9809    5.1837    0.0000 F   0  0  0  0  0  0  0  0  0  0  0  0
    3.0800   -4.6202    0.0000 F   0  0  0  0  0  0  0  0  0  0  0  0
    3.6437   -2.5165    0.0000 F   0  0  0  0  0  0  0  0  0  0  0  0
    5.1837   -5.1837    0.0000 F   0  0  0  0  0  0  0  0  0  0  0  0
   20.4182    3.8500    0.0000 O   0  0  0  0  0  0  0  0  0  0  0  0
   11.0824    0.0000    0.0000 C   0  0  0  0  0  0  0  0  0  0  0  0
   12.4161    0.7700    0.0000 C   0  0  0  0  0  0  0  0  0  0  0  0
    9.7485   -0.7700    0.0000 C   0  0  0  0  0  0  0  0  0  0  0  0
   13.7497    1.5400    0.0000 C   0  0  0  0  0  0  0  0  0  0  0  0
    8.4149   -1.5400    0.0000 C   0  0  0  0  0  0  0  0  0  0  0  0
   15.0834    2.3100    0.0000 C   0  0  0  0  0  0  0  0  0  0  0  0
    7.0812   -2.3100    0.0000 C   0  0  0  0  0  0  0  0  0  0  0  0
   16.4171    3.0800    0.0000 C   0  0  0  0  0  0  0  0  0  0  0  0
    5.7475   -3.0800    0.0000 C   0  0  0  0  0  0  0  0  0  0  0  0
   17.7509    3.8500    0.0000 C   0  0  0  0  0  0  0  0  0  0  0  0
    4.4137   -3.8500    0.0000 C   0  0  0  0  0  0  0  0  0  0  0  0
   19.0846    4.6202    0.0000 C   0  0  0  0  0  0  0  0  0  0  0  0
  1 25  1  0  0  0  0
  2 25  1  0  0  0  0
  3 26  1  0  0  0  0
  4 26  1  0  0  0  0
  5 27  1  0  0  0  0
  6 27  1  0  0  0  0
  7 28  1  0  0  0  0
  8 28  1  0  0  0  0
  9 29  1  0  0  0  0
 10 29  1  0  0  0  0
 11 30  1  0  0  0  0
 12 30  1  0  0  0  0
 13 31  1  0  0  0  0
 14 31  1  0  0  0  0
 15 32  1  0  0  0  0
 16 32  1  0  0  0  0
 17 33  1  0  0  0  0
 18 33  1  0  0  0  0
 19 34  1  0  0  0  0
 20 34  1  0  0  0  0
 21 35  1  0  0  0  0
 22 35  1  0  0  0  0
 23 35  1  0  0  0  0
 24 36  1  0  0  0  0
 25 26  1  0  0  0  0
 25 27  1  0  0  0  0
 26 28  1  0  0  0  0
 27 29  1  0  0  0  0
 28 30  1  0  0  0  0
 29 31  1  0  0  0  0
 30 32  1  0  0  0  0
 31 33  1  0  0  0  0
 32 34  1  0  0  0  0
 33 35  1  0  0  0  0
 34 36  1  0  0  0  0
M  END
>  <INPUT>
DTXSID80375107

>  <FOUND_BY>
DSSTox_Substance_Id

>  <DTXSID>
DTXSID80375107

>  <PREFERRED_NAME>
11:1 Fluorotelomer alcohol

>  <CASRN>
423-65-4

>  <INCHIKEY>
SHTZQFTXUMCALC-UHFFFAOYSA-N

>  <IUPAC_NAME>
2,2,3,3,4,4,5,5,6,6,7,7,8,8,9,9,10,10,11,11,12,12,12-Tricosafluorododecan-1-ol

>  <SMILES>
OCC(F)(F)C(F)(F)C(F)(F)C(F)(F)C(F)(F)C(F)(F)C(F)(F)C(F)(F)C(F)(F)C(F)(F)C(F)(F)F

>  <INCHI_STRING>
InChI=1S/C12H3F23O/c13-2(14,1-36)3(15,16)4(17,18)5(19,20)6(21,22)7(23,24)8(25,26)9(27,28)10(29,30)11(31,32)12(33,34)35/h36H,1H2

>  <MOLECULAR_FORMULA>
C12H3F23O

>  <AVERAGE_MASS>
600.118

>  <MONOISOTOPIC_MASS>
599.981662466

>  <MOL_FILE>
MOL_FILE

$$$$

  -INDIGO-02112615072D

 21 20  0  0  0  0  0  0  0  0999 V2000
    3.0800   -1.5400    0.0000 Cl  0  0  0  0  0  0  0  0  0  0  0  0
    7.6449    1.3337    0.0000 F   0  0  0  0  0  0  0  0  0  0  0  0
    9.1849   -1.3337    0.0000 F   0  0  0  0  0  0  0  0  0  0  0  0
    8.9785    2.1037    0.0000 F   0  0  0  0  0  0  0  0  0  0  0  0
   10.5187   -0.5637    0.0000 F   0  0  0  0  0  0  0  0  0  0  0  0
    6.3112    0.5637    0.0000 F   0  0  0  0  0  0  0  0  0  0  0  0
    7.8512   -2.1037    0.0000 F   0  0  0  0  0  0  0  0  0  0  0  0
   11.8524    0.2065    0.0000 F   0  0  0  0  0  0  0  0  0  0  0  0
   10.3124    2.8737    0.0000 F   0  0  0  0  0  0  0  0  0  0  0  0
    4.9775   -0.2065    0.0000 F   0  0  0  0  0  0  0  0  0  0  0  0
    6.5175   -2.8737    0.0000 F   0  0  0  0  0  0  0  0  0  0  0  0
   13.7497    1.5400    0.0000 F   0  0  0  0  0  0  0  0  0  0  0  0
   12.4161    3.8500    0.0000 F   0  0  0  0  0  0  0  0  0  0  0  0
    4.4137   -3.8500    0.0000 O   0  0  0  0  0  0  0  0  0  0  0  0
    8.4149    0.0000    0.0000 C   0  0  0  0  0  0  0  0  0  0  0  0
    9.7485    0.7700    0.0000 C   0  0  0  0  0  0  0  0  0  0  0  0
    7.0812   -0.7700    0.0000 C   0  0  0  0  0  0  0  0  0  0  0  0
   11.0824    1.5400    0.0000 C   0  0  0  0  0  0  0  0  0  0  0  0
    5.7475   -1.5400    0.0000 C   0  0  0  0  0  0  0  0  0  0  0  0
   12.4161    2.3100    0.0000 C   0  0  0  0  0  0  0  0  0  0  0  0
    4.4137   -2.3100    0.0000 C   0  0  0  0  0  0  0  0  0  0  0  0
  1 21  1  0  0  0  0
  2 15  1  0  0  0  0
  3 15  1  0  0  0  0
  4 16  1  0  0  0  0
  5 16  1  0  0  0  0
  6 17  1  0  0  0  0
  7 17  1  0  0  0  0
  8 18  1  0  0  0  0
  9 18  1  0  0  0  0
 10 19  1  0  0  0  0
 11 19  1  0  0  0  0
 12 20  1  0  0  0  0
 13 20  1  0  0  0  0
 14 21  2  0  0  0  0
 15 16  1  0  0  0  0
 15 17  1  0  0  0  0
 16 18  1  0  0  0  0
 17 19  1  0  0  0  0
 18 20  1  0  0  0  0
 19 21  1  0  0  0  0
M  END
>  <INPUT>
DTXSID00379829

>  <FOUND_BY>
DSSTox_Substance_Id

>  <DTXSID>
DTXSID00379829

>  <PREFERRED_NAME>
7H-Perfluoroheptanoyl chloride

>  <CASRN>
41405-35-0

>  <INCHIKEY>
SQQWEKUYKNKPOG-UHFFFAOYSA-N

>  <IUPAC_NAME>
2,2,3,3,4,4,5,5,6,6,7,7-Dodecafluoroheptanoyl chloride

>  <SMILES>
FC(F)C(F)(F)C(F)(F)C(F)(F)C(F)(F)C(F)(F)C(Cl)=O

>  <INCHI_STRING>
InChI=1S/C7HClF12O/c8-1(21)3(11,12)5(15,16)7(19,20)6(17,18)4(13,14)2(9)10/h2H

>  <MOLECULAR_FORMULA>
C7HClF12O

>  <AVERAGE_MASS>
364.51

>  <MONOISOTOPIC_MASS>
363.9524303

>  <MOL_FILE>
MOL_FILE

$$$$

  -INDIGO-02112615072D

 17 16  0  0  0  0  0  0  0  0999 V2000
    3.8500    1.3337    0.0000 O   0  0  0  0  0  0  0  0  0  0  0  0
    2.3100    1.3337    0.0000 C   0  0  0  0  0  0  0  0  0  0  0  0
    1.5400    2.6673    0.0000 O   0  0  0  0  0  0  0  0  0  0  0  0
    2.3100    4.0010    0.0000 C   0  0  0  0  0  0  0  0  0  0  0  0
    1.5400    5.3347    0.0000 C   0  0  0  0  0  0  0  0  0  0  0  0
    0.2063    4.5647    0.0000 F   0  0  0  0  0  0  0  0  0  0  0  0
    2.8737    6.1047    0.0000 F   0  0  0  0  0  0  0  0  0  0  0  0
    0.7700    6.6685    0.0000 C   0  0  0  0  0  0  0  0  0  0  0  0
   -0.5637    5.8985    0.0000 F   0  0  0  0  0  0  0  0  0  0  0  0
    2.1037    7.4385    0.0000 F   0  0  0  0  0  0  0  0  0  0  0  0
    0.0000    8.0020    0.0000 C   0  0  0  0  0  0  0  0  0  0  0  0
   -0.7700    9.3358    0.0000 F   0  0  0  0  0  0  0  0  0  0  0  0
   -1.3337    7.2320    0.0000 F   0  0  0  0  0  0  0  0  0  0  0  0
    1.3337    8.7720    0.0000 F   0  0  0  0  0  0  0  0  0  0  0  0
    1.5400    0.0000    0.0000 C   0  0  0  0  0  0  0  0  0  0  0  0
    2.3100   -1.3337    0.0000 C   0  0  0  0  0  0  0  0  0  0  0  0
    0.0000    0.0000    0.0000 C   0  0  0  0  0  0  0  0  0  0  0  0
  1  2  2  0  0  0  0
  2  3  1  0  0  0  0
  3  4  1  0  0  0  0
  4  5  1  0  0  0  0
  5  6  1  0  0  0  0
  5  7  1  0  0  0  0
  5  8  1  0  0  0  0
  8  9  1  0  0  0  0
  8 10  1  0  0  0  0
  8 11  1  0  0  0  0
 11 12  1  0  0  0  0
 11 13  1  0  0  0  0
 11 14  1  0  0  0  0
  2 15  1  0  0  0  0
 15 16  2  0  0  0  0
 15 17  1  0  0  0  0
M  END
>  <INPUT>
DTXSID3065586

>  <FOUND_BY>
DSSTox_Substance_Id

>  <DTXSID>
DTXSID3065586

>  <PREFERRED_NAME>
(Perfluoropropyl)methyl methacrylate

>  <CASRN>
13695-31-3

>  <INCHIKEY>
VIEHKBXCWMMOOU-UHFFFAOYSA-N

>  <IUPAC_NAME>
2,2,3,3,4,4,4-Heptafluorobutyl 2-methylprop-2-enoate

>  <SMILES>
CC(=C)C(=O)OCC(F)(F)C(F)(F)C(F)(F)F

>  <INCHI_STRING>
InChI=1S/C8H7F7O2/c1-4(2)5(16)17-3-6(9,10)7(11,12)8(13,14)15/h1,3H2,2H3


>  <MOLECULAR_FORMULA>
C8H7F7O2

>  <AVERAGE_MASS>
268.131

>  <MONOISOTOPIC_MASS>
268.033426606

>  <MOL_FILE>
MOL_FILE

$$$$

  -INDIGO-02112615072D

 22 21  0  0  0  0  0  0  0  0999 V2000
    9.7485    1.1551    0.0000 S   0  0  0  0  0  0  0  0  0  0  0  0
    6.3112    0.9486    0.0000 F   0  0  0  0  0  0  0  0  0  0  0  0
    7.8512   -1.7186    0.0000 F   0  0  0  0  0  0  0  0  0  0  0  0
    7.6449    1.7186    0.0000 F   0  0  0  0  0  0  0  0  0  0  0  0
    9.1849   -0.9486    0.0000 F   0  0  0  0  0  0  0  0  0  0  0  0
    4.9775    0.1786    0.0000 F   0  0  0  0  0  0  0  0  0  0  0  0
    6.5175   -2.4886    0.0000 F   0  0  0  0  0  0  0  0  0  0  0  0
    3.0800   -2.6951    0.0000 F   0  0  0  0  0  0  0  0  0  0  0  0
    3.6437   -0.5914    0.0000 F   0  0  0  0  0  0  0  0  0  0  0  0
    5.1837   -3.2586    0.0000 F   0  0  0  0  0  0  0  0  0  0  0  0
   15.0834    2.6951    0.0000 F   0  0  0  0  0  0  0  0  0  0  0  0
   14.5197    0.5914    0.0000 F   0  0  0  0  0  0  0  0  0  0  0  0
   12.9797    3.2586    0.0000 F   0  0  0  0  0  0  0  0  0  0  0  0
   11.0824    1.9251    0.0000 O   0  0  0  0  0  0  0  0  0  0  0  0
   10.5187   -0.1786    0.0000 O   0  0  0  0  0  0  0  0  0  0  0  0
    8.9785    2.4886    0.0000 O   0  0  0  0  0  0  0  0  0  0  0  0
    7.0812   -0.3851    0.0000 C   0  0  0  0  0  0  0  0  0  0  0  0
    8.4149    0.3851    0.0000 C   0  0  0  0  0  0  0  0  0  0  0  0
    5.7475   -1.1551    0.0000 C   0  0  0  0  0  0  0  0  0  0  0  0
    4.4137   -1.9251    0.0000 C   0  0  0  0  0  0  0  0  0  0  0  0
   12.4161    1.1551    0.0000 C   0  0  0  0  0  0  0  0  0  0  0  0
   13.7497    1.9251    0.0000 C   0  0  0  0  0  0  0  0  0  0  0  0
  1 14  1  0  0  0  0
  1 15  2  0  0  0  0
  1 16  2  0  0  0  0
  1 18  1  0  0  0  0
  2 17  1  0  0  0  0
  3 17  1  0  0  0  0
  4 18  1  0  0  0  0
  5 18  1  0  0  0  0
  6 19  1  0  0  0  0
  7 19  1  0  0  0  0
  8 20  1  0  0  0  0
  9 20  1  0  0  0  0
 10 20  1  0  0  0  0
 11 22  1  0  0  0  0
 12 22  1  0  0  0  0
 13 22  1  0  0  0  0
 14 21  1  0  0  0  0
 17 18  1  0  0  0  0
 17 19  1  0  0  0  0
 19 20  1  0  0  0  0
 21 22  1  0  0  0  0
M  END
>  <INPUT>
DTXSID60380390

>  <FOUND_BY>
DSSTox_Substance_Id

>  <DTXSID>
DTXSID60380390

>  <PREFERRED_NAME>
2,2,2-Trifluoroethyl perfluorobutanesulfonate

>  <CASRN>
79963-95-4

>  <INCHIKEY>
KJGYBFLEIPDFNQ-UHFFFAOYSA-N

>  <IUPAC_NAME>
2,2,2-Trifluoroethyl nonafluorobutane-1-sulfonate

>  <SMILES>
FC(F)(F)COS(=O)(=O)C(F)(F)C(F)(F)C(F)(F)C(F)(F)F

>  <INCHI_STRING>
InChI=1S/C6H2F12O3S/c7-2(8,9)1-21-22(19,20)6(17,18)4(12,13)3(10,11)5(14,15)16/h1H2

>  <MOLECULAR_FORMULA>
C6H2F12O3S

>  <AVERAGE_MASS>
382.12

>  <MONOISOTOPIC_MASS>
381.953303054

>  <MOL_FILE>
MOL_FILE

$$$$

  -INDIGO-02112615072D

 11 10  0  0  0  0  0  0  0  0999 V2000
    8.8462   -0.0433    0.0000 F   0  0  0  0  0  0  0  0  0  0  0  0
    7.3062    1.4967    0.0000 F   0  0  0  0  0  0  0  0  0  0  0  0
    7.3062   -1.5833    0.0000 F   0  0  0  0  0  0  0  0  0  0  0  0
    2.6862   -0.0433    0.0000 F   0  0  0  0  0  0  0  0  0  0  0  0
    4.2262    1.4967    0.0000 F   0  0  0  0  0  0  0  0  0  0  0  0
    4.2262   -1.5833    0.0000 F   0  0  0  0  0  0  0  0  0  0  0  0
    5.7662    1.4967    0.0000 O   0  0  0  0  0  0  0  0  0  0  0  0
    5.7662   -1.5833    0.0000 N   0  0  0  0  0  0  0  0  0  0  0  0
    5.7662   -0.0433    0.0000 C   0  0  0  0  0  0  0  0  0  0  0  0
    7.3062   -0.0433    0.0000 C   0  0  0  0  0  0  0  0  0  0  0  0
    4.2262   -0.0433    0.0000 C   0  0  0  0  0  0  0  0  0  0  0  0
  1 10  1  0  0  0  0
  2 10  1  0  0  0  0
  3 10  1  0  0  0  0
  4 11  1  0  0  0  0
  5 11  1  0  0  0  0
  6 11  1  0  0  0  0
  7  9  1  0  0  0  0
  8  9  1  0  0  0  0
  9 10  1  0  0  0  0
  9 11  1  0  0  0  0
M  END
>  <INPUT>
DTXSID80382093

>  <FOUND_BY>
DSSTox_Substance_Id

>  <DTXSID>
DTXSID80382093

>  <PREFERRED_NAME>
2-Aminohexafluoropropan-2-ol

>  <CASRN>
31253-34-6

>  <INCHIKEY>
KENSSLIXPGVLRV-UHFFFAOYSA-N

>  <IUPAC_NAME>
2-Amino-1,1,1,3,3,3-hexafluoropropan-2-ol

>  <SMILES>
NC(O)(C(F)(F)F)C(F)(F)F

>  <INCHI_STRING>
InChI=1S/C3H3F6NO/c4-2(5,6)1(10,11)3(7,8)9/h11H,10H2

>  <MOLECULAR_FORMULA>
C3H3F6NO

>  <AVERAGE_MASS>
183.053

>  <MONOISOTOPIC_MASS>
183.011882699

>  <MOL_FILE>
MOL_FILE

$$$$

  -INDIGO-02112615072D

 19 18  0  0  0  0  0  0  0  0999 V2000
    1.0823    0.8699    0.0000 F   0  0  0  0  0  0  0  0  0  0  0  0
    0.1080    0.3074    0.0000 F   0  0  0  0  0  0  0  0  0  0  0  0
    0.1077   -2.7673    0.0000 F   0  0  0  0  0  0  0  0  0  0  0  0
   -1.4415   -2.7679    0.0000 F   0  0  0  0  0  0  0  0  0  0  0  0
   -1.4320    0.3124    0.0000 F   0  0  0  0  0  0  0  0  0  0  0  0
    1.8573    2.2114    0.0000 F   0  0  0  0  0  0  0  0  0  0  0  0
    4.5295    0.6794    0.0000 F   0  0  0  0  0  0  0  0  0  0  0  0
    3.9735    2.7776    0.0000 F   0  0  0  0  0  0  0  0  0  0  0  0
   -2.9852   -2.7776    0.0000 F   0  0  0  0  0  0  0  0  0  0  0  0
   -2.9812    0.3118    0.0000 F   0  0  0  0  0  0  0  0  0  0  0  0
   -4.5295   -1.2379    0.0000 F   0  0  0  0  0  0  0  0  0  0  0  0
    1.6434   -1.2371    0.0000 O   0  0  0  0  0  0  0  0  0  0  0  0
    3.7553   -2.2110    0.0000 O   0  0  0  0  0  0  0  0  0  0  0  0
    2.4185    0.1043    0.0000 C   0  0  0  0  0  0  0  0  0  0  0  0
    0.1123   -1.2272    0.0000 C   0  0  0  0  0  0  0  0  0  0  0  0
   -1.4315   -1.2369    0.0000 C   0  0  0  0  0  0  0  0  0  0  0  0
    3.7546   -0.6617    0.0000 C   0  0  0  0  0  0  0  0  0  0  0  0
    3.1987    1.4364    0.0000 C   0  0  0  0  0  0  0  0  0  0  0  0
   -2.9805   -1.2374    0.0000 C   0  0  0  0  0  0  0  0  0  0  0  0
  1 14  1  0  0  0  0
  2 15  1  0  0  0  0
  3 15  1  0  0  0  0
  4 16  1  0  0  0  0
  5 16  1  0  0  0  0
  6 18  1  0  0  0  0
  7 18  1  0  0  0  0
  8 18  1  0  0  0  0
  9 19  1  0  0  0  0
 10 19  1  0  0  0  0
 11 19  1  0  0  0  0
 12 14  1  0  0  0  0
 12 15  1  0  0  0  0
 13 17  1  0  0  0  0
 14 17  1  0  0  0  0
 14 18  1  0  0  0  0
 15 16  1  0  0  0  0
 16 19  1  0  0  0  0
M  END
>  <INPUT>
DTXSID60379284

>  <FOUND_BY>
DSSTox_Substance_Id

>  <DTXSID>
DTXSID60379284

>  <PREFERRED_NAME>
2-(Perfluoropropoxy)-1H,1H-perfluoropropanol

>  <CASRN>
26537-88-2

>  <INCHIKEY>
MSOLHCPBFWYOSH-UHFFFAOYNA-N

>  <IUPAC_NAME>
2,3,3,3-Tetrafluoro-2-(heptafluoropropoxy)propan-1-ol

>  <SMILES>
OCC(F)(OC(F)(F)C(F)(F)C(F)(F)F)C(F)(F)F

>  <INCHI_STRING>
InChI=1S/C6H3F11O2/c7-2(1-18,4(10,11)12)19-6(16,17)3(8,9)5(13,14)15/h18H,1H2

>  <MOLECULAR_FORMULA>
C6H3F11O2

>  <AVERAGE_MASS>
316.07

>  <MONOISOTOPIC_MASS>
315.99573913

>  <MOL_FILE>
MOL_FILE

$$$$

  -INDIGO-02112615072D

 30 29  0  0  0  0  0  0  0  0999 V2000
   12.9797    1.3337    0.0000 F   0  0  0  0  0  0  0  0  0  0  0  0
   14.5197   -1.3337    0.0000 F   0  0  0  0  0  0  0  0  0  0  0  0
   11.6461    0.5637    0.0000 F   0  0  0  0  0  0  0  0  0  0  0  0
   13.1861   -2.1037    0.0000 F   0  0  0  0  0  0  0  0  0  0  0  0
   14.3134    2.1037    0.0000 F   0  0  0  0  0  0  0  0  0  0  0  0
   15.8534   -0.5637    0.0000 F   0  0  0  0  0  0  0  0  0  0  0  0
   10.3124   -0.2065    0.0000 F   0  0  0  0  0  0  0  0  0  0  0  0
   11.8524   -2.8737    0.0000 F   0  0  0  0  0  0  0  0  0  0  0  0
   17.1873    0.2065    0.0000 F   0  0  0  0  0  0  0  0  0  0  0  0
   15.6471    2.8737    0.0000 F   0  0  0  0  0  0  0  0  0  0  0  0
    8.9785   -0.9765    0.0000 F   0  0  0  0  0  0  0  0  0  0  0  0
   10.5187   -3.6437    0.0000 F   0  0  0  0  0  0  0  0  0  0  0  0
   18.5209    0.9765    0.0000 F   0  0  0  0  0  0  0  0  0  0  0  0
   16.9809    3.6437    0.0000 F   0  0  0  0  0  0  0  0  0  0  0  0
   20.4182    2.3100    0.0000 F   0  0  0  0  0  0  0  0  0  0  0  0
   19.0846    4.6202    0.0000 F   0  0  0  0  0  0  0  0  0  0  0  0
    7.0812   -2.3100    0.0000 O   0  0  0  0  0  0  0  0  0  0  0  0
    5.7475   -4.6202    0.0000 O   0  0  0  0  0  0  0  0  0  0  0  0
   13.7497    0.0000    0.0000 C   0  0  0  0  0  0  0  0  0  0  0  0
   12.4161   -0.7700    0.0000 C   0  0  0  0  0  0  0  0  0  0  0  0
   15.0834    0.7700    0.0000 C   0  0  0  0  0  0  0  0  0  0  0  0
   11.0824   -1.5400    0.0000 C   0  0  0  0  0  0  0  0  0  0  0  0
   16.4171    1.5400    0.0000 C   0  0  0  0  0  0  0  0  0  0  0  0
    9.7485   -2.3100    0.0000 C   0  0  0  0  0  0  0  0  0  0  0  0
   17.7509    2.3100    0.0000 C   0  0  0  0  0  0  0  0  0  0  0  0
    8.4149   -3.0800    0.0000 C   0  0  0  0  0  0  0  0  0  0  0  0
   19.0846    3.0800    0.0000 C   0  0  0  0  0  0  0  0  0  0  0  0
    5.7475   -3.0800    0.0000 C   0  0  0  0  0  0  0  0  0  0  0  0
    4.4137   -2.3100    0.0000 C   0  0  0  0  0  0  0  0  0  0  0  0
    3.0800   -3.0800    0.0000 C   0  0  0  0  0  0  0  0  0  0  0  0
  1 19  1  0  0  0  0
  2 19  1  0  0  0  0
  3 20  1  0  0  0  0
  4 20  1  0  0  0  0
  5 21  1  0  0  0  0
  6 21  1  0  0  0  0
  7 22  1  0  0  0  0
  8 22  1  0  0  0  0
  9 23  1  0  0  0  0
 10 23  1  0  0  0  0
 11 24  1  0  0  0  0
 12 24  1  0  0  0  0
 13 25  1  0  0  0  0
 14 25  1  0  0  0  0
 15 27  1  0  0  0  0
 16 27  1  0  0  0  0
 17 26  1  0  0  0  0
 17 28  1  0  0  0  0
 18 28  2  0  0  0  0
 19 20  1  0  0  0  0
 19 21  1  0  0  0  0
 20 22  1  0  0  0  0
 21 23  1  0  0  0  0
 22 24  1  0  0  0  0
 23 25  1  0  0  0  0
 24 26  1  0  0  0  0
 25 27  1  0  0  0  0
 28 29  1  0  0  0  0
 29 30  2  0  0  0  0
M  END
>  <INPUT>
DTXSID00194615

>  <FOUND_BY>
DSSTox_Substance_Id

>  <DTXSID>
DTXSID00194615

>  <PREFERRED_NAME>
1H,1H,9H-Perfluorononyl acrylate

>  <CASRN>
4180-26-1

>  <INCHIKEY>
QXDKTLFTMZTCKT-UHFFFAOYSA-N

>  <IUPAC_NAME>
2,2,3,3,4,4,5,5,6,6,7,7,8,8,9,9-Hexadecafluorononyl prop-2-enoate

>  <SMILES>
FC(F)C(F)(F)C(F)(F)C(F)(F)C(F)(F)C(F)(F)C(F)(F)C(F)(F)COC(=O)C=C

>  <INCHI_STRING>
InChI=1S/C12H6F16O2/c1-2-4(29)30-3-6(15,16)8(19,20)10(23,24)12(27,28)11(25,26)9(21,22)7(17,18)5(13)14/h2,5H,1,3H2

>  <MOLECULAR_FORMULA>
C12H6F16O2

>  <AVERAGE_MASS>
486.152

>  <MONOISOTOPIC_MASS>
486.011230041

>  <MOL_FILE>
MOL_FILE

$$$$

  -INDIGO-02112615072D

 15 12  0  0  0  0  0  0  0  0999 V2000
   -0.5310    3.4474    0.0000 F   0  0  0  0  0  0  0  0  0  0  0  0
    0.8003    2.6732    0.0000 C   0  0  0  0  0  0  0  0  0  0  0  0
    2.1421    1.8992    0.0000 F   0  0  0  0  0  0  0  0  0  0  0  0
    1.5742    4.0153    0.0000 F   0  0  0  0  0  0  0  0  0  0  0  0
    0.0366    1.3313    0.0000 C   0  0  0  0  0  0  0  0  0  0  0  0
   -1.5118    1.3313    0.0000 O   0  0  0  0  0  0  0  0  0  0  0  0
    0.8003   -0.0001    0.0000 C   0  0  0  0  0  0  0  0  0  0  0  0
    0.0366   -1.3313    0.0000 C   0  0  0  0  0  0  0  0  0  0  0  0
   -1.5118   -1.3313    0.0000 O   0  0  0  0  0  0  0  0  0  0  0  0
    0.8003   -2.6732    0.0000 C   0  0  0  0  0  0  0  0  0  0  0  0
    2.1421   -1.8992    0.0000 F   0  0  0  0  0  0  0  0  0  0  0  0
   -0.5310   -3.4474    0.0000 F   0  0  0  0  0  0  0  0  0  0  0  0
    1.5742   -4.0153    0.0000 F   0  0  0  0  0  0  0  0  0  0  0  0
   -2.1421    2.3045    0.0000 O   0  0  0  0  0  0  0  0  0  0  0  0
   -2.1234   -0.4203    0.0000 O   0  0  0  0  0  0  0  0  0  0  0  0
  1  2  1  0  0  0  0
  2  3  1  0  0  0  0
  2  4  1  0  0  0  0
  2  5  1  0  0  0  0
  5  6  2  0  0  0  0
  5  7  1  0  0  0  0
  7  8  1  0  0  0  0
  8  9  2  0  0  0  0
  8 10  1  0  0  0  0
 10 11  1  0  0  0  0
 10 12  1  0  0  0  0
 10 13  1  0  0  0  0
M  END
>  <INPUT>
DTXSID60217076

>  <FOUND_BY>
DSSTox_Substance_Id

>  <DTXSID>
DTXSID60217076

>  <PREFERRED_NAME>
Hexafluoroacetylacetone dihydrate

>  <CASRN>
66922-83-6

>  <INCHIKEY>
PXNXMEXSPOKKSW-UHFFFAOYSA-N

>  <IUPAC_NAME>
1,1,1,5,5,5-Hexafluoropentane-2,4-dione--water (1/2)

>  <SMILES>
O.O.FC(F)(F)C(=O)CC(=O)C(F)(F)F

>  <INCHI_STRING>
InChI=1S/C5H2F6O2.2H2O/c6-4(7,8)2(12)1-3(13)5(9,10)11;;/h1H2;2*1H2


>  <MOLECULAR_FORMULA>
C5H6F6O4

>  <AVERAGE_MASS>
244.089

>  <MONOISOTOPIC_MASS>
244.017027651

>  <MOL_FILE>
MOL_FILE

$$$$

  -INDIGO-02112615072D

 18 17  0  0  0  0  0  0  0  0999 V2000
    7.6449    0.6668    0.0000 F   0  0  0  0  0  0  0  0  0  0  0  0
    9.1849   -2.0005    0.0000 F   0  0  0  0  0  0  0  0  0  0  0  0
    8.9785    1.4368    0.0000 F   0  0  0  0  0  0  0  0  0  0  0  0
   10.5187   -1.2305    0.0000 F   0  0  0  0  0  0  0  0  0  0  0  0
   10.3124    2.2070    0.0000 F   0  0  0  0  0  0  0  0  0  0  0  0
   11.8524   -0.4605    0.0000 F   0  0  0  0  0  0  0  0  0  0  0  0
   13.7497    2.4132    0.0000 F   0  0  0  0  0  0  0  0  0  0  0  0
   13.1861    0.3095    0.0000 F   0  0  0  0  0  0  0  0  0  0  0  0
   11.6461    2.9770    0.0000 F   0  0  0  0  0  0  0  0  0  0  0  0
    4.4137   -2.9770    0.0000 O   0  0  0  0  0  0  0  0  0  0  0  0
    8.4149   -0.6668    0.0000 C   0  0  0  0  0  0  0  0  0  0  0  0
    9.7485    0.1032    0.0000 C   0  0  0  0  0  0  0  0  0  0  0  0
    7.0812   -1.4368    0.0000 C   0  0  0  0  0  0  0  0  0  0  0  0
   11.0824    0.8732    0.0000 C   0  0  0  0  0  0  0  0  0  0  0  0
    5.7475   -0.6668    0.0000 C   0  0  0  0  0  0  0  0  0  0  0  0
   12.4161    1.6432    0.0000 C   0  0  0  0  0  0  0  0  0  0  0  0
    4.4137   -1.4368    0.0000 C   0  0  0  0  0  0  0  0  0  0  0  0
    3.0800   -0.6668    0.0000 C   0  0  0  0  0  0  0  0  0  0  0  0
  1 11  1  0  0  0  0
  2 11  1  0  0  0  0
  3 12  1  0  0  0  0
  4 12  1  0  0  0  0
  5 14  1  0  0  0  0
  6 14  1  0  0  0  0
  7 16  1  0  0  0  0
  8 16  1  0  0  0  0
  9 16  1  0  0  0  0
 10 17  2  0  0  0  0
 11 12  1  0  0  0  0
 11 13  1  0  0  0  0
 12 14  1  0  0  0  0
 13 15  1  0  0  0  0
 14 16  1  0  0  0  0
 15 17  1  0  0  0  0
 17 18  1  0  0  0  0
M  END
>  <INPUT>
DTXSID20577986

>  <FOUND_BY>
DSSTox_Substance_Id

>  <DTXSID>
DTXSID20577986

>  <PREFERRED_NAME>
4-(Perfluorobutyl)-2-butanone

>  <CASRN>
140834-64-6

>  <INCHIKEY>
QSFHSDZDCSCCGQ-UHFFFAOYSA-N

>  <IUPAC_NAME>
5,5,6,6,7,7,8,8,8-Nonafluorooctan-2-one

>  <SMILES>
CC(=O)CCC(F)(F)C(F)(F)C(F)(F)C(F)(F)F

>  <INCHI_STRING>
InChI=1S/C8H7F9O/c1-4(18)2-3-5(9,10)6(11,12)7(13,14)8(15,16)17/h2-3H2,1H3

>  <MOLECULAR_FORMULA>
C8H7F9O

>  <AVERAGE_MASS>
290.129

>  <MONOISOTOPIC_MASS>
290.035318312

>  <MOL_FILE>
MOL_FILE

$$$$

  -INDIGO-02112615072D

 26 25  0  0  0  0  0  0  0  0999 V2000
    5.3799    1.5321    0.0000 O   0  0  0  0  0  0  0  0  0  0  0  0
    5.3778   -0.0079    0.0000 S   0  0  0  0  0  0  0  0  0  0  0  0
    5.3756   -1.5476    0.0000 O   0  0  0  0  0  0  0  0  0  0  0  0
    6.9174   -0.0099    0.0000 O   0  0  0  0  0  0  0  0  0  0  0  0
    3.8378   -0.0058    0.0000 C   0  0  0  0  0  0  0  0  0  0  0  0
    3.8356   -1.5455    0.0000 F   0  0  0  0  0  0  0  0  0  0  0  0
    3.8399    1.5342    0.0000 F   0  0  0  0  0  0  0  0  0  0  0  0
    2.2982   -0.0036    0.0000 C   0  0  0  0  0  0  0  0  0  0  0  0
    2.2961   -1.5436    0.0000 F   0  0  0  0  0  0  0  0  0  0  0  0
    2.3054    1.5267    0.0000 F   0  0  0  0  0  0  0  0  0  0  0  0
    0.7582   -0.0016    0.0000 C   0  0  0  0  0  0  0  0  0  0  0  0
    0.7655   -1.5361    0.0000 F   0  0  0  0  0  0  0  0  0  0  0  0
    0.7657    1.5291    0.0000 F   0  0  0  0  0  0  0  0  0  0  0  0
   -0.7582    0.0016    0.0000 C   0  0  0  0  0  0  0  0  0  0  0  0
   -0.7657   -1.5291    0.0000 F   0  0  0  0  0  0  0  0  0  0  0  0
   -0.7656    1.5361    0.0000 F   0  0  0  0  0  0  0  0  0  0  0  0
   -2.2982    0.0036    0.0000 C   0  0  0  0  0  0  0  0  0  0  0  0
   -2.3054   -1.5267    0.0000 F   0  0  0  0  0  0  0  0  0  0  0  0
   -2.2961    1.5436    0.0000 F   0  0  0  0  0  0  0  0  0  0  0  0
   -3.8380    0.0058    0.0000 C   0  0  0  0  0  0  0  0  0  0  0  0
   -3.8399   -1.5342    0.0000 F   0  0  0  0  0  0  0  0  0  0  0  0
   -3.8356    1.5455    0.0000 F   0  0  0  0  0  0  0  0  0  0  0  0
   -5.3778    0.0079    0.0000 C   0  0  0  0  0  0  0  0  0  0  0  0
   -5.3799   -1.5321    0.0000 F   0  0  0  0  0  0  0  0  0  0  0  0
   -5.3756    1.5476    0.0000 F   0  0  0  0  0  0  0  0  0  0  0  0
   -6.9174    0.0099    0.0000 F   0  0  0  0  0  0  0  0  0  0  0  0
  1  2  2  0  0  0  0
  2  3  2  0  0  0  0
  2  4  1  0  0  0  0
  2  5  1  0  0  0  0
  5  6  1  0  0  0  0
  5  7  1  0  0  0  0
  5  8  1  0  0  0  0
  8  9  1  0  0  0  0
  8 10  1  0  0  0  0
  8 11  1  0  0  0  0
 11 12  1  0  0  0  0
 11 13  1  0  0  0  0
 11 14  1  0  0  0  0
 14 15  1  0  0  0  0
 14 16  1  0  0  0  0
 14 17  1  0  0  0  0
 17 18  1  0  0  0  0
 17 19  1  0  0  0  0
 17 20  1  0  0  0  0
 20 21  1  0  0  0  0
 20 22  1  0  0  0  0
 20 23  1  0  0  0  0
 23 24  1  0  0  0  0
 23 25  1  0  0  0  0
 23 26  1  0  0  0  0
M  END
>  <INPUT>
DTXSID8059920

>  <FOUND_BY>
DSSTox_Substance_Id

>  <DTXSID>
DTXSID8059920

>  <PREFERRED_NAME>
Perfluoroheptanesulfonic acid

>  <CASRN>
375-92-8

>  <INCHIKEY>
OYGQVDSRYXATEL-UHFFFAOYSA-N

>  <IUPAC_NAME>
Pentadecafluoroheptane-1-sulfonic acid

>  <SMILES>
OS(=O)(=O)C(F)(F)C(F)(F)C(F)(F)C(F)(F)C(F)(F)C(F)(F)C(F)(F)F

>  <INCHI_STRING>
InChI=1S/C7HF15O3S/c8-1(9,2(10,11)4(14,15)6(18,19)20)3(12,13)5(16,17)7(21,22)26(23,24)25/h(H,23,24,25)


>  <MOLECULAR_FORMULA>
C7HF15O3S

>  <AVERAGE_MASS>
450.12

>  <MONOISOTOPIC_MASS>
449.940687511

>  <MOL_FILE>
MOL_FILE

$$$$

  -INDIGO-02112615072D

 10  9  0  0  0  0  0  0  0  0999 V2000
    8.4149    1.4969    0.0000 F   0  0  0  0  0  0  0  0  0  0  0  0
    7.8512   -0.6069    0.0000 F   0  0  0  0  0  0  0  0  0  0  0  0
    6.3112    2.0606    0.0000 F   0  0  0  0  0  0  0  0  0  0  0  0
    3.0800    1.4969    0.0000 F   0  0  0  0  0  0  0  0  0  0  0  0
    3.6437   -0.6069    0.0000 F   0  0  0  0  0  0  0  0  0  0  0  0
    5.1837    2.0606    0.0000 F   0  0  0  0  0  0  0  0  0  0  0  0
    5.7475   -1.5831    0.0000 N   0  0  0  0  0  0  0  0  0  0  0  0
    5.7475   -0.0431    0.0000 C   0  0  0  0  0  0  0  0  0  0  0  0
    7.0812    0.7269    0.0000 C   0  0  0  0  0  0  0  0  0  0  0  0
    4.4137    0.7269    0.0000 C   0  0  0  0  0  0  0  0  0  0  0  0
  1  9  1  0  0  0  0
  2  9  1  0  0  0  0
  3  9  1  0  0  0  0
  4 10  1  0  0  0  0
  5 10  1  0  0  0  0
  6 10  1  0  0  0  0
  7  8  1  0  0  0  0
  8  9  1  0  0  0  0
  8 10  1  0  0  0  0
M  END
>  <INPUT>
DTXSID70481246

>  <FOUND_BY>
DSSTox_Substance_Id

>  <DTXSID>
DTXSID70481246

>  <PREFERRED_NAME>
2-Amino-2H-perfluoropropane

>  <CASRN>
1619-92-7

>  <INCHIKEY>
UHEDJBIYIWUMLU-UHFFFAOYSA-N

>  <IUPAC_NAME>
1,1,1,3,3,3-Hexafluoropropan-2-amine

>  <SMILES>
NC(C(F)(F)F)C(F)(F)F

>  <INCHI_STRING>
InChI=1S/C3H3F6N/c4-2(5,6)1(10)3(7,8)9/h1H,10H2

>  <MOLECULAR_FORMULA>
C3H3F6N

>  <AVERAGE_MASS>
167.054

>  <MONOISOTOPIC_MASS>
167.016968079

>  <MOL_FILE>
MOL_FILE

$$$$

  -INDIGO-02112615072D

 27 26  0  0  0  0  0  0  0  0999 V2000
   14.1719    2.7686    0.0000 F   0  0  0  0  0  0  0  0  0  0  0  0
   14.1719   -0.3114    0.0000 F   0  0  0  0  0  0  0  0  0  0  0  0
   15.7119    2.7686    0.0000 F   0  0  0  0  0  0  0  0  0  0  0  0
   15.7119   -0.3114    0.0000 F   0  0  0  0  0  0  0  0  0  0  0  0
   12.6319    2.7686    0.0000 F   0  0  0  0  0  0  0  0  0  0  0  0
   12.6319   -0.3114    0.0000 F   0  0  0  0  0  0  0  0  0  0  0  0
    8.9882    0.6649    0.0000 F   0  0  0  0  0  0  0  0  0  0  0  0
   11.6555   -0.8751    0.0000 F   0  0  0  0  0  0  0  0  0  0  0  0
   18.7919    1.2286    0.0000 F   0  0  0  0  0  0  0  0  0  0  0  0
   17.2519    2.7686    0.0000 F   0  0  0  0  0  0  0  0  0  0  0  0
   17.2519   -0.3114    0.0000 F   0  0  0  0  0  0  0  0  0  0  0  0
    8.2182   -0.6688    0.0000 F   0  0  0  0  0  0  0  0  0  0  0  0
   10.8855   -2.2088    0.0000 F   0  0  0  0  0  0  0  0  0  0  0  0
    7.2419   -1.2325    0.0000 F   0  0  0  0  0  0  0  0  0  0  0  0
    7.2419   -4.3125    0.0000 F   0  0  0  0  0  0  0  0  0  0  0  0
   11.0919    1.2286    0.0000 O   0  0  0  0  0  0  0  0  0  0  0  0
    8.7819   -2.7725    0.0000 O   0  0  0  0  0  0  0  0  0  0  0  0
    4.9319   -4.1062    0.0000 O   0  0  0  0  0  0  0  0  0  0  0  0
    4.9319   -1.4388    0.0000 O   0  0  0  0  0  0  0  0  0  0  0  0
   14.1719    1.2286    0.0000 C   0  0  0  0  0  0  0  0  0  0  0  0
   15.7119    1.2286    0.0000 C   0  0  0  0  0  0  0  0  0  0  0  0
   12.6319    1.2286    0.0000 C   0  0  0  0  0  0  0  0  0  0  0  0
   10.3219   -0.1051    0.0000 C   0  0  0  0  0  0  0  0  0  0  0  0
   17.2519    1.2286    0.0000 C   0  0  0  0  0  0  0  0  0  0  0  0
    9.5519   -1.4388    0.0000 C   0  0  0  0  0  0  0  0  0  0  0  0
    7.2419   -2.7725    0.0000 C   0  0  0  0  0  0  0  0  0  0  0  0
    5.7019   -2.7725    0.0000 C   0  0  0  0  0  0  0  0  0  0  0  0
  1 20  1  0  0  0  0
  2 20  1  0  0  0  0
  3 21  1  0  0  0  0
  4 21  1  0  0  0  0
  5 22  1  0  0  0  0
  6 22  1  0  0  0  0
  7 23  1  0  0  0  0
  8 23  1  0  0  0  0
  9 24  1  0  0  0  0
 10 24  1  0  0  0  0
 11 24  1  0  0  0  0
 12 25  1  0  0  0  0
 13 25  1  0  0  0  0
 14 26  1  0  0  0  0
 15 26  1  0  0  0  0
 16 22  1  0  0  0  0
 16 23  1  0  0  0  0
 17 25  1  0  0  0  0
 17 26  1  0  0  0  0
 18 27  1  0  0  0  0
 19 27  2  0  0  0  0
 20 21  1  0  0  0  0
 20 22  1  0  0  0  0
 21 24  1  0  0  0  0
 23 25  1  0  0  0  0
 26 27  1  0  0  0  0
M  END
>  <INPUT>
DTXSID50381073

>  <FOUND_BY>
DSSTox_Substance_Id

>  <DTXSID>
DTXSID50381073

>  <PREFERRED_NAME>
Perfluoro-3,6-dioxadecanoic acid

>  <CASRN>
137780-69-9

>  <INCHIKEY>
PPSAKBBLKCJDCR-UHFFFAOYSA-N

>  <IUPAC_NAME>
Difluoro[1,1,2,2-tetrafluoro-2-(nonafluorobutoxy)ethoxy]acetic acid

>  <SMILES>
OC(=O)C(F)(F)OC(F)(F)C(F)(F)OC(F)(F)C(F)(F)C(F)(F)C(F)(F)F

>  <INCHI_STRING>
InChI=1S/C8HF15O4/c9-2(10,1(24)25)26-7(20,21)8(22,23)27-6(18,19)4(13,14)3(11,12)5(15,16)17/h(H,24,25)

>  <MOLECULAR_FORMULA>
C8HF15O4

>  <AVERAGE_MASS>
446.068

>  <MONOISOTOPIC_MASS>
445.963530957

>  <MOL_FILE>
MOL_FILE

$$$$

  -INDIGO-02112615072D

 15 14  0  0  0  0  0  0  0  0999 V2000
    3.8500    6.6685    0.0000 O   0  0  0  0  0  0  0  0  0  0  0  0
    4.6200    5.3347    0.0000 C   0  0  0  0  0  0  0  0  0  0  0  0
    6.1600    5.3347    0.0000 O   0  0  0  0  0  0  0  0  0  0  0  0
    3.8500    4.0010    0.0000 C   0  0  0  0  0  0  0  0  0  0  0  0
    2.5163    4.7710    0.0000 F   0  0  0  0  0  0  0  0  0  0  0  0
    5.1837    3.2310    0.0000 F   0  0  0  0  0  0  0  0  0  0  0  0
    3.0800    2.6673    0.0000 C   0  0  0  0  0  0  0  0  0  0  0  0
    1.7463    3.4373    0.0000 F   0  0  0  0  0  0  0  0  0  0  0  0
    4.4137    1.8973    0.0000 F   0  0  0  0  0  0  0  0  0  0  0  0
    2.3100    1.3337    0.0000 C   0  0  0  0  0  0  0  0  0  0  0  0
    0.9763    2.1037    0.0000 F   0  0  0  0  0  0  0  0  0  0  0  0
    3.6437    0.5637    0.0000 F   0  0  0  0  0  0  0  0  0  0  0  0
    1.5400    0.0000    0.0000 C   0  0  0  0  0  0  0  0  0  0  0  0
    2.3100   -1.3337    0.0000 O   0  0  0  0  0  0  0  0  0  0  0  0
    0.0000    0.0000    0.0000 O   0  0  0  0  0  0  0  0  0  0  0  0
  1  2  2  0  0  0  0
  2  3  1  0  0  0  0
  2  4  1  0  0  0  0
  4  5  1  0  0  0  0
  4  6  1  0  0  0  0
  4  7  1  0  0  0  0
  7  8  1  0  0  0  0
  7  9  1  0  0  0  0
  7 10  1  0  0  0  0
 10 11  1  0  0  0  0
 10 12  1  0  0  0  0
 10 13  1  0  0  0  0
 13 14  2  0  0  0  0
 13 15  1  0  0  0  0
M  END
>  <INPUT>
DTXSID8059926

>  <FOUND_BY>
DSSTox_Substance_Id

>  <DTXSID>
DTXSID8059926

>  <PREFERRED_NAME>
Perfluoropentanedioic acid

>  <CASRN>
376-73-8

>  <INCHIKEY>
CCUWGJDGLACFQT-UHFFFAOYSA-N

>  <IUPAC_NAME>
Hexafluoropentanedioic acid

>  <SMILES>
OC(=O)C(F)(F)C(F)(F)C(F)(F)C(O)=O

>  <INCHI_STRING>
InChI=1S/C5H2F6O4/c6-3(7,1(12)13)5(10,11)4(8,9)2(14)15/h(H,12,13)(H,14,15)

>  <MOLECULAR_FORMULA>
C5H2F6O4

>  <AVERAGE_MASS>
240.057

>  <MONOISOTOPIC_MASS>
239.985727522

>  <MOL_FILE>
MOL_FILE

$$$$

  -INDIGO-02112615072D

 13 12  0  0  0  0  0  0  0  0999 V2000
    1.4370   -1.0519    0.0000 F   0  0  0  0  0  0  0  0  0  0  0  0
   -0.1030    1.6154    0.0000 F   0  0  0  0  0  0  0  0  0  0  0  0
    0.1034   -1.8219    0.0000 F   0  0  0  0  0  0  0  0  0  0  0  0
   -1.4368    0.8454    0.0000 F   0  0  0  0  0  0  0  0  0  0  0  0
   -3.3342   -2.0281    0.0000 F   0  0  0  0  0  0  0  0  0  0  0  0
   -2.7705    0.0754    0.0000 F   0  0  0  0  0  0  0  0  0  0  0  0
   -1.2305   -2.5919    0.0000 F   0  0  0  0  0  0  0  0  0  0  0  0
    3.3342    0.2819    0.0000 O   0  0  0  0  0  0  0  0  0  0  0  0
    0.6670    0.2819    0.0000 C   0  0  0  0  0  0  0  0  0  0  0  0
   -0.6666   -0.4881    0.0000 C   0  0  0  0  0  0  0  0  0  0  0  0
    2.0007    1.0519    0.0000 C   0  0  0  0  0  0  0  0  0  0  0  0
   -2.0005   -1.2581    0.0000 C   0  0  0  0  0  0  0  0  0  0  0  0
    2.0007    2.5919    0.0000 C   0  0  0  0  0  0  0  0  0  0  0  0
  1  9  1  0  0  0  0
  2  9  1  0  0  0  0
  3 10  1  0  0  0  0
  4 10  1  0  0  0  0
  5 12  1  0  0  0  0
  6 12  1  0  0  0  0
  7 12  1  0  0  0  0
  8 11  1  0  0  0  0
  9 10  1  0  0  0  0
  9 11  1  0  0  0  0
 10 12  1  0  0  0  0
 11 13  1  0  0  0  0
M  END
>  <INPUT>
DTXSID30880135

>  <FOUND_BY>
DSSTox_Substance_Id

>  <DTXSID>
DTXSID30880135

>  <PREFERRED_NAME>
1-Perfluoropropylethanol

>  <CASRN>
375-14-4

>  <INCHIKEY>
RBPHBIMHZSTIDT-UHFFFAOYNA-N

>  <IUPAC_NAME>
3,3,4,4,5,5,5-Heptafluoropentan-2-ol

>  <SMILES>
CC(O)C(F)(F)C(F)(F)C(F)(F)F

>  <INCHI_STRING>
InChI=1S/C5H5F7O/c1-2(13)3(6,7)4(8,9)5(10,11)12/h2,13H,1H3

>  <MOLECULAR_FORMULA>
C5H5F7O

>  <AVERAGE_MASS>
214.083

>  <MONOISOTOPIC_MASS>
214.022861922

>  <MOL_FILE>
MOL_FILE

$$$$

  -INDIGO-02112615072D

 26 25  0  0  0  0  0  0  0  0999 V2000
    7.4228   -5.0522    0.0000 O   0  0  0  0  0  0  0  0  0  0  0  0
    6.5176   -6.2982    0.0000 C   0  0  0  0  0  0  0  0  0  0  0  0
    7.1440   -7.7051    0.0000 O   0  0  0  0  0  0  0  0  0  0  0  0
    8.6755   -7.8661    0.0000 C   0  0  0  0  0  0  0  0  0  0  0  0
    4.9860   -6.1372    0.0000 C   0  0  0  0  0  0  0  0  0  0  0  0
    5.1470   -4.6056    0.0000 F   0  0  0  0  0  0  0  0  0  0  0  0
    4.8250   -7.6688    0.0000 F   0  0  0  0  0  0  0  0  0  0  0  0
    3.4545   -5.9762    0.0000 C   0  0  0  0  0  0  0  0  0  0  0  0
    3.6154   -4.4447    0.0000 F   0  0  0  0  0  0  0  0  0  0  0  0
    3.2935   -7.5078    0.0000 F   0  0  0  0  0  0  0  0  0  0  0  0
    1.9229   -5.8152    0.0000 C   0  0  0  0  0  0  0  0  0  0  0  0
    2.0839   -4.2837    0.0000 F   0  0  0  0  0  0  0  0  0  0  0  0
    1.7619   -7.3468    0.0000 F   0  0  0  0  0  0  0  0  0  0  0  0
    0.3913   -5.6543    0.0000 C   0  0  0  0  0  0  0  0  0  0  0  0
    0.5523   -4.1227    0.0000 F   0  0  0  0  0  0  0  0  0  0  0  0
    0.2304   -7.1858    0.0000 F   0  0  0  0  0  0  0  0  0  0  0  0
   -1.1402   -5.4933    0.0000 C   0  0  0  0  0  0  0  0  0  0  0  0
   -0.9793   -3.9617    0.0000 F   0  0  0  0  0  0  0  0  0  0  0  0
   -1.3012   -7.0249    0.0000 F   0  0  0  0  0  0  0  0  0  0  0  0
   -2.6718   -5.3323    0.0000 C   0  0  0  0  0  0  0  0  0  0  0  0
   -2.5108   -3.8008    0.0000 F   0  0  0  0  0  0  0  0  0  0  0  0
   -2.8328   -6.8639    0.0000 F   0  0  0  0  0  0  0  0  0  0  0  0
   -4.2034   -5.1713    0.0000 C   0  0  0  0  0  0  0  0  0  0  0  0
   -5.7349   -5.0104    0.0000 F   0  0  0  0  0  0  0  0  0  0  0  0
   -4.0424   -3.6398    0.0000 F   0  0  0  0  0  0  0  0  0  0  0  0
   -4.3643   -6.7029    0.0000 F   0  0  0  0  0  0  0  0  0  0  0  0
  1  2  2  0  0  0  0
  2  3  1  0  0  0  0
  3  4  1  0  0  0  0
  2  5  1  0  0  0  0
  5  6  1  0  0  0  0
  5  7  1  0  0  0  0
  5  8  1  0  0  0  0
  8  9  1  0  0  0  0
  8 10  1  0  0  0  0
  8 11  1  0  0  0  0
 11 12  1  0  0  0  0
 11 13  1  0  0  0  0
 11 14  1  0  0  0  0
 14 15  1  0  0  0  0
 14 16  1  0  0  0  0
 14 17  1  0  0  0  0
 17 18  1  0  0  0  0
 17 19  1  0  0  0  0
 17 20  1  0  0  0  0
 20 21  1  0  0  0  0
 20 22  1  0  0  0  0
 20 23  1  0  0  0  0
 23 24  1  0  0  0  0
 23 25  1  0  0  0  0
 23 26  1  0  0  0  0
M  END
>  <INPUT>
DTXSID8059924

>  <FOUND_BY>
DSSTox_Substance_Id

>  <DTXSID>
DTXSID8059924

>  <PREFERRED_NAME>
Methyl perfluorooctanoate

>  <CASRN>
376-27-2

>  <INCHIKEY>
XOCNYZFAMHDXJK-UHFFFAOYSA-N

>  <IUPAC_NAME>
Methyl pentadecafluorooctanoate

>  <SMILES>
COC(=O)C(F)(F)C(F)(F)C(F)(F)C(F)(F)C(F)(F)C(F)(F)C(F)(F)F

>  <INCHI_STRING>
InChI=1S/C9H3F15O2/c1-26-2(25)3(10,11)4(12,13)5(14,15)6(16,17)7(18,19)8(20,21)9(22,23)24/h1H3

>  <MOLECULAR_FORMULA>
C9H3F15O2

>  <AVERAGE_MASS>
428.097

>  <MONOISOTOPIC_MASS>
427.989351782

>  <MOL_FILE>
MOL_FILE

$$$$

  -INDIGO-02112615072D

 12 11  0  0  0  0  0  0  0  0999 V2000
    3.0800    5.3347    0.0000 O   0  0  0  0  0  0  0  0  0  0  0  0
    3.8500    4.0010    0.0000 C   0  0  0  0  0  0  0  0  0  0  0  0
    5.3900    4.0010    0.0000 O   0  0  0  0  0  0  0  0  0  0  0  0
    3.0800    2.6673    0.0000 C   0  0  0  0  0  0  0  0  0  0  0  0
    1.7463    3.4373    0.0000 F   0  0  0  0  0  0  0  0  0  0  0  0
    4.4137    1.8973    0.0000 F   0  0  0  0  0  0  0  0  0  0  0  0
    2.3100    1.3337    0.0000 C   0  0  0  0  0  0  0  0  0  0  0  0
    0.9763    2.1037    0.0000 F   0  0  0  0  0  0  0  0  0  0  0  0
    3.6437    0.5637    0.0000 F   0  0  0  0  0  0  0  0  0  0  0  0
    1.5400    0.0000    0.0000 C   0  0  0  0  0  0  0  0  0  0  0  0
    2.3100   -1.3337    0.0000 O   0  0  0  0  0  0  0  0  0  0  0  0
    0.0000    0.0000    0.0000 O   0  0  0  0  0  0  0  0  0  0  0  0
  1  2  2  0  0  0  0
  2  3  1  0  0  0  0
  2  4  1  0  0  0  0
  4  5  1  0  0  0  0
  4  6  1  0  0  0  0
  4  7  1  0  0  0  0
  7  8  1  0  0  0  0
  7  9  1  0  0  0  0
  7 10  1  0  0  0  0
 10 11  2  0  0  0  0
 10 12  1  0  0  0  0
M  END
>  <INPUT>
DTXSID8059928

>  <FOUND_BY>
DSSTox_Substance_Id

>  <DTXSID>
DTXSID8059928

>  <PREFERRED_NAME>
Perfluorobutanedioic acid

>  <CASRN>
377-38-8

>  <INCHIKEY>
YUDUFRYTKFGQCL-UHFFFAOYSA-N

>  <IUPAC_NAME>
Tetrafluorobutanedioic acid

>  <SMILES>
OC(=O)C(F)(F)C(F)(F)C(O)=O

>  <INCHI_STRING>
InChI=1S/C4H2F4O4/c5-3(6,1(9)10)4(7,8)2(11)12/h(H,9,10)(H,11,12)

>  <MOLECULAR_FORMULA>
C4H2F4O4

>  <AVERAGE_MASS>
190.05

>  <MONOISOTOPIC_MASS>
189.988921196

>  <MOL_FILE>
MOL_FILE

$$$$

  -INDIGO-02112615072D

 24 23  0  0  0  0  0  0  0  0999 V2000
    5.3900    0.0000    0.0000 C   0  0  0  0  0  0  0  0  0  0  0  0
    3.8500    0.0000    0.0000 C   0  0  0  0  0  0  0  0  0  0  0  0
    2.3100    0.0000    0.0000 C   0  0  0  0  0  0  0  0  0  0  0  0
    0.7700    0.0000    0.0000 C   0  0  0  0  0  0  0  0  0  0  0  0
   -0.7700    0.0000    0.0000 C   0  0  0  0  0  0  0  0  0  0  0  0
   -2.3100    0.0000    0.0000 C   0  0  0  0  0  0  0  0  0  0  0  0
   -3.8500    0.0000    0.0000 C   0  0  0  0  0  0  0  0  0  0  0  0
   -5.3900    0.0000    0.0000 C   0  0  0  0  0  0  0  0  0  0  0  0
    6.1600    1.3337    0.0000 O   0  0  0  0  0  0  0  0  0  0  0  0
   -6.1600   -1.3337    0.0000 O   0  0  0  0  0  0  0  0  0  0  0  0
   -6.1600    1.3337    0.0000 N   0  0  0  0  0  0  0  0  0  0  0  0
    6.1600   -1.3337    0.0000 N   0  0  0  0  0  0  0  0  0  0  0  0
    3.8500    1.5400    0.0000 F   0  0  0  0  0  0  0  0  0  0  0  0
    3.8500   -1.5400    0.0000 F   0  0  0  0  0  0  0  0  0  0  0  0
    2.3100    1.5400    0.0000 F   0  0  0  0  0  0  0  0  0  0  0  0
    2.3100   -1.5400    0.0000 F   0  0  0  0  0  0  0  0  0  0  0  0
    0.7700    1.5400    0.0000 F   0  0  0  0  0  0  0  0  0  0  0  0
    0.7700   -1.5400    0.0000 F   0  0  0  0  0  0  0  0  0  0  0  0
   -0.7700    1.5400    0.0000 F   0  0  0  0  0  0  0  0  0  0  0  0
   -0.7700   -1.5400    0.0000 F   0  0  0  0  0  0  0  0  0  0  0  0
   -2.3100    1.5400    0.0000 F   0  0  0  0  0  0  0  0  0  0  0  0
   -2.3100   -1.5400    0.0000 F   0  0  0  0  0  0  0  0  0  0  0  0
   -3.8500    1.5400    0.0000 F   0  0  0  0  0  0  0  0  0  0  0  0
   -3.8500   -1.5400    0.0000 F   0  0  0  0  0  0  0  0  0  0  0  0
  1  2  1  0  0  0  0
  2  3  1  0  0  0  0
  3  4  1  0  0  0  0
  4  5  1  0  0  0  0
  5  6  1  0  0  0  0
  6  7  1  0  0  0  0
  7  8  1  0  0  0  0
  9  1  2  0  0  0  0
 10  8  2  0  0  0  0
  8 11  1  0  0  0  0
  1 12  1  0  0  0  0
  2 13  1  0  0  0  0
  2 14  1  0  0  0  0
  3 15  1  0  0  0  0
  3 16  1  0  0  0  0
  4 17  1  0  0  0  0
  4 18  1  0  0  0  0
  5 19  1  0  0  0  0
  5 20  1  0  0  0  0
  6 21  1  0  0  0  0
  6 22  1  0  0  0  0
  7 23  1  0  0  0  0
  7 24  1  0  0  0  0
M  END
>  <INPUT>
DTXSID70880194

>  <FOUND_BY>
DSSTox_Substance_Id

>  <DTXSID>
DTXSID70880194

>  <PREFERRED_NAME>
Perfluorooctanedioic diamide

>  <CASRN>
3492-23-7

>  <INCHIKEY>
SYUPSOPAIUOEGW-UHFFFAOYSA-N

>  <IUPAC_NAME>
2,2,3,3,4,4,5,5,6,6,7,7-Dodecafluorooctanediamide

>  <SMILES>
NC(=O)C(F)(F)C(F)(F)C(F)(F)C(F)(F)C(F)(F)C(F)(F)C(N)=O

>  <INCHI_STRING>
InChI=1S/C8H4F12N2O2/c9-3(10,1(21)23)5(13,14)7(17,18)8(19,20)6(15,16)4(11,12)2(22)24/h(H2,21,23)(H2,22,24)


>  <MOLECULAR_FORMULA>
C8H4F12N2O2

>  <AVERAGE_MASS>
388.113

>  <MONOISOTOPIC_MASS>
388.008115333

>  <MOL_FILE>
MOL_FILE

$$$$

  -INDIGO-02112615072D

 27 27  0  0  0  0  0  0  0  0999 V2000
    4.9773   -1.4646    0.0000 F   0  0  0  0  0  0  0  0  0  0  0  0
    6.5173   -4.1319    0.0000 F   0  0  0  0  0  0  0  0  0  0  0  0
   11.8522   -1.4646    0.0000 F   0  0  0  0  0  0  0  0  0  0  0  0
   10.3122   -4.1319    0.0000 F   0  0  0  0  0  0  0  0  0  0  0  0
    9.9547    1.8219    0.0000 F   0  0  0  0  0  0  0  0  0  0  0  0
    6.8747    1.8219    0.0000 F   0  0  0  0  0  0  0  0  0  0  0  0
    3.0800   -4.3381    0.0000 F   0  0  0  0  0  0  0  0  0  0  0  0
    3.6437   -2.2346    0.0000 F   0  0  0  0  0  0  0  0  0  0  0  0
    5.1837   -4.9019    0.0000 F   0  0  0  0  0  0  0  0  0  0  0  0
   13.7495   -4.3381    0.0000 F   0  0  0  0  0  0  0  0  0  0  0  0
   13.1858   -2.2346    0.0000 F   0  0  0  0  0  0  0  0  0  0  0  0
   11.6458   -4.9019    0.0000 F   0  0  0  0  0  0  0  0  0  0  0  0
    8.4147    4.9019    0.0000 F   0  0  0  0  0  0  0  0  0  0  0  0
    9.9547    3.3619    0.0000 F   0  0  0  0  0  0  0  0  0  0  0  0
    6.8747    3.3619    0.0000 F   0  0  0  0  0  0  0  0  0  0  0  0
    8.4147   -2.7981    0.0000 N   0  0  0  0  0  0  0  0  0  0  0  0
    7.0810   -0.4881    0.0000 N   0  0  0  0  0  0  0  0  0  0  0  0
    9.7483   -0.4881    0.0000 N   0  0  0  0  0  0  0  0  0  0  0  0
    7.0810   -2.0281    0.0000 C   0  0  0  0  0  0  0  0  0  0  0  0
    9.7483   -2.0281    0.0000 C   0  0  0  0  0  0  0  0  0  0  0  0
    8.4147    0.2819    0.0000 C   0  0  0  0  0  0  0  0  0  0  0  0
    5.7473   -2.7981    0.0000 C   0  0  0  0  0  0  0  0  0  0  0  0
   11.0822   -2.7981    0.0000 C   0  0  0  0  0  0  0  0  0  0  0  0
    8.4147    1.8219    0.0000 C   0  0  0  0  0  0  0  0  0  0  0  0
    4.4137   -3.5681    0.0000 C   0  0  0  0  0  0  0  0  0  0  0  0
   12.4158   -3.5681    0.0000 C   0  0  0  0  0  0  0  0  0  0  0  0
    8.4147    3.3619    0.0000 C   0  0  0  0  0  0  0  0  0  0  0  0
  1 22  1  0  0  0  0
  2 22  1  0  0  0  0
  3 23  1  0  0  0  0
  4 23  1  0  0  0  0
  5 24  1  0  0  0  0
  6 24  1  0  0  0  0
  7 25  1  0  0  0  0
  8 25  1  0  0  0  0
  9 25  1  0  0  0  0
 10 26  1  0  0  0  0
 11 26  1  0  0  0  0
 12 26  1  0  0  0  0
 13 27  1  0  0  0  0
 14 27  1  0  0  0  0
 15 27  1  0  0  0  0
 16 19  1  0  0  0  0
 16 20  2  0  0  0  0
 17 19  2  0  0  0  0
 17 21  1  0  0  0  0
 18 20  1  0  0  0  0
 18 21  2  0  0  0  0
 19 22  1  0  0  0  0
 20 23  1  0  0  0  0
 21 24  1  0  0  0  0
 22 25  1  0  0  0  0
 23 26  1  0  0  0  0
 24 27  1  0  0  0  0
M  END
>  <INPUT>
DTXSID30235085

>  <FOUND_BY>
DSSTox_Substance_Id

>  <DTXSID>
DTXSID30235085

>  <PREFERRED_NAME>
2,4,6-Tris(pentafluoroethyl)-1,3,5-triazine

>  <CASRN>
858-46-8

>  <INCHIKEY>
MQBPAXAOMVELQG-UHFFFAOYSA-N

>  <IUPAC_NAME>
2,4,6-Tris(pentafluoroethyl)-1,3,5-triazine

>  <SMILES>
FC(F)(F)C(F)(F)C1=NC(=NC(=N1)C(F)(F)C(F)(F)F)C(F)(F)C(F)(F)F

>  <INCHI_STRING>
InChI=1S/C9F15N3/c10-4(11,7(16,17)18)1-25-2(5(12,13)8(19,20)21)27-3(26-1)6(14,15)9(22,23)24

>  <MOLECULAR_FORMULA>
C9F15N3

>  <AVERAGE_MASS>
435.096

>  <MONOISOTOPIC_MASS>
434.985269457

>  <MOL_FILE>
MOL_FILE

$$$$

  -INDIGO-02112615072D

 31 30  0  0  0  0  0  0  0  0999 V2000
    7.7041    1.4134    0.0000 F   0  0  0  0  0  0  0  0  0  0  0  0
    8.7416   -1.4368    0.0000 F   0  0  0  0  0  0  0  0  0  0  0  0
   10.0751   -0.6668    0.0000 F   0  0  0  0  0  0  0  0  0  0  0  0
    8.5351    2.0005    0.0000 F   0  0  0  0  0  0  0  0  0  0  0  0
    7.4079   -2.2070    0.0000 F   0  0  0  0  0  0  0  0  0  0  0  0
   10.9064   -0.0797    0.0000 F   0  0  0  0  0  0  0  0  0  0  0  0
    9.8689    2.7705    0.0000 F   0  0  0  0  0  0  0  0  0  0  0  0
   11.2026    3.5405    0.0000 F   0  0  0  0  0  0  0  0  0  0  0  0
    6.6377   -3.5405    0.0000 F   0  0  0  0  0  0  0  0  0  0  0  0
    4.5339   -1.4368    0.0000 F   0  0  0  0  0  0  0  0  0  0  0  0
    4.2784    1.1067    0.0000 F   0  0  0  0  0  0  0  0  0  0  0  0
    4.0109   -0.4099    0.0000 F   0  0  0  0  0  0  0  0  0  0  0  0
    6.4480    1.2964    0.0000 F   0  0  0  0  0  0  0  0  0  0  0  0
   13.5128    4.8742    0.0000 F   0  0  0  0  0  0  0  0  0  0  0  0
   14.0763    2.7705    0.0000 F   0  0  0  0  0  0  0  0  0  0  0  0
   11.9726    4.8742    0.0000 F   0  0  0  0  0  0  0  0  0  0  0  0
   14.3321    0.2270    0.0000 F   0  0  0  0  0  0  0  0  0  0  0  0
   14.5996    1.7437    0.0000 F   0  0  0  0  0  0  0  0  0  0  0  0
   12.1626    0.0373    0.0000 F   0  0  0  0  0  0  0  0  0  0  0  0
    3.5575   -3.5403    0.0000 O   0  0  0  0  0  0  0  0  0  0  0  0
    5.8675   -4.8742    0.0000 O   0  0  0  0  0  0  0  0  0  0  0  0
    7.9716   -0.1032    0.0000 C   0  0  0  0  0  0  0  0  0  0  0  0
    9.3051    0.6668    0.0000 C   0  0  0  0  0  0  0  0  0  0  0  0
    6.6379   -0.8732    0.0000 C   0  0  0  0  0  0  0  0  0  0  0  0
   10.6389    1.4368    0.0000 C   0  0  0  0  0  0  0  0  0  0  0  0
   11.9726    2.2070    0.0000 C   0  0  0  0  0  0  0  0  0  0  0  0
    5.8677   -2.2070    0.0000 C   0  0  0  0  0  0  0  0  0  0  0  0
    5.4579    0.1167    0.0000 C   0  0  0  0  0  0  0  0  0  0  0  0
   12.7426    3.5405    0.0000 C   0  0  0  0  0  0  0  0  0  0  0  0
   13.1523    1.2169    0.0000 C   0  0  0  0  0  0  0  0  0  0  0  0
    5.0977   -3.5405    0.0000 C   0  0  0  0  0  0  0  0  0  0  0  0
  1 22  1  0  0  0  0
  2 22  1  0  0  0  0
  3 23  1  0  0  0  0
  4 23  1  0  0  0  0
  5 24  1  0  0  0  0
  6 25  1  0  0  0  0
  7 25  1  0  0  0  0
  8 26  1  0  0  0  0
  9 27  1  0  0  0  0
 10 27  1  0  0  0  0
 11 28  1  0  0  0  0
 12 28  1  0  0  0  0
 13 28  1  0  0  0  0
 14 29  1  0  0  0  0
 15 29  1  0  0  0  0
 16 29  1  0  0  0  0
 17 30  1  0  0  0  0
 18 30  1  0  0  0  0
 19 30  1  0  0  0  0
 20 31  1  0  0  0  0
 21 31  2  0  0  0  0
 22 23  1  0  0  0  0
 22 24  1  0  0  0  0
 23 25  1  0  0  0  0
 24 27  1  0  0  0  0
 24 28  1  0  0  0  0
 25 26  1  0  0  0  0
 26 29  1  0  0  0  0
 26 30  1  0  0  0  0
 27 31  1  0  0  0  0
M  END
>  <INPUT>
DTXSID40379808

>  <FOUND_BY>
DSSTox_Substance_Id

>  <DTXSID>
DTXSID40379808

>  <PREFERRED_NAME>
Perfluoro-3,7-dimethyloctanoic acid

>  <CASRN>
172155-07-6

>  <INCHIKEY>
KZUSAXRVIONPJU-UHFFFAOYNA-N

>  <IUPAC_NAME>
2,2,3,4,4,5,5,6,6,7,8,8,8-Tridecafluoro-3,7-bis(trifluoromethyl)octanoic acid

>  <SMILES>
OC(=O)C(F)(F)C(F)(C(F)(F)F)C(F)(F)C(F)(F)C(F)(F)C(F)(C(F)(F)F)C(F)(F)F

>  <INCHI_STRING>
InChI=1/C10HF19O2/c11-2(12,1(30)31)3(13,8(21,22)23)5(15,16)7(19,20)6(17,18)4(14,9(24,25)26)10(27,28)29/h(H,30,31)


>  <MOLECULAR_FORMULA>
C10HF19O2

>  <AVERAGE_MASS>
514.086

>  <MONOISOTOPIC_MASS>
513.967314369

>  <MOL_FILE>
MOL_FILE

$$$$

  -INDIGO-02112615072D

 17 16  0  0  0  0  0  0  0  0999 V2000
   11.0824    2.3100    0.0000 Cl  0  0  0  0  0  0  0  0  0  0  0  0
    9.7485    1.5400    0.0000 S   0  0  0  0  0  0  0  0  0  0  0  0
    6.3112    1.3337    0.0000 F   0  0  0  0  0  0  0  0  0  0  0  0
    7.8512   -1.3337    0.0000 F   0  0  0  0  0  0  0  0  0  0  0  0
    7.6449    2.1037    0.0000 F   0  0  0  0  0  0  0  0  0  0  0  0
    9.1849   -0.5637    0.0000 F   0  0  0  0  0  0  0  0  0  0  0  0
    4.9775    0.5637    0.0000 F   0  0  0  0  0  0  0  0  0  0  0  0
    6.5175   -2.1037    0.0000 F   0  0  0  0  0  0  0  0  0  0  0  0
    3.0800   -2.3100    0.0000 F   0  0  0  0  0  0  0  0  0  0  0  0
    3.6437   -0.2065    0.0000 F   0  0  0  0  0  0  0  0  0  0  0  0
    5.1837   -2.8737    0.0000 F   0  0  0  0  0  0  0  0  0  0  0  0
   10.5187    0.2065    0.0000 O   0  0  0  0  0  0  0  0  0  0  0  0
    8.9785    2.8737    0.0000 O   0  0  0  0  0  0  0  0  0  0  0  0
    7.0812    0.0000    0.0000 C   0  0  0  0  0  0  0  0  0  0  0  0
    8.4149    0.7700    0.0000 C   0  0  0  0  0  0  0  0  0  0  0  0
    5.7475   -0.7700    0.0000 C   0  0  0  0  0  0  0  0  0  0  0  0
    4.4137   -1.5400    0.0000 C   0  0  0  0  0  0  0  0  0  0  0  0
  1  2  1  0  0  0  0
  2 12  2  0  0  0  0
  2 13  2  0  0  0  0
  2 15  1  0  0  0  0
  3 14  1  0  0  0  0
  4 14  1  0  0  0  0
  5 15  1  0  0  0  0
  6 15  1  0  0  0  0
  7 16  1  0  0  0  0
  8 16  1  0  0  0  0
  9 17  1  0  0  0  0
 10 17  1  0  0  0  0
 11 17  1  0  0  0  0
 14 15  1  0  0  0  0
 14 16  1  0  0  0  0
 16 17  1  0  0  0  0
M  END
>  <INPUT>
DTXSID80315129

>  <FOUND_BY>
DSSTox_Substance_Id

>  <DTXSID>
DTXSID80315129

>  <PREFERRED_NAME>
Perfluoro-1-butanesulfonyl chloride

>  <CASRN>
2991-84-6

>  <INCHIKEY>
IRFCLLARAUQTNK-UHFFFAOYSA-N

>  <IUPAC_NAME>
Nonafluorobutane-1-sulfonyl chloride

>  <SMILES>
FC(F)(F)C(F)(F)C(F)(F)C(F)(F)S(Cl)(=O)=O

>  <INCHI_STRING>
InChI=1S/C4ClF9O2S/c5-17(15,16)4(13,14)2(8,9)1(6,7)3(10,11)12

>  <MOLECULAR_FORMULA>
C4ClF9O2S

>  <AVERAGE_MASS>
318.54

>  <MONOISOTOPIC_MASS>
317.9163816

>  <MOL_FILE>
MOL_FILE

$$$$

  -INDIGO-02112615072D

 28 27  0  0  0  0  0  0  0  0999 V2000
    3.0800   -2.2070    0.0000 Cl  0  0  0  0  0  0  0  0  0  0  0  0
    8.9785    1.4368    0.0000 F   0  0  0  0  0  0  0  0  0  0  0  0
   10.5187   -1.2305    0.0000 F   0  0  0  0  0  0  0  0  0  0  0  0
   10.3124    2.2070    0.0000 F   0  0  0  0  0  0  0  0  0  0  0  0
   11.8524   -0.4605    0.0000 F   0  0  0  0  0  0  0  0  0  0  0  0
    7.6449    0.6668    0.0000 F   0  0  0  0  0  0  0  0  0  0  0  0
    9.1849   -2.0005    0.0000 F   0  0  0  0  0  0  0  0  0  0  0  0
   13.1861    0.3095    0.0000 F   0  0  0  0  0  0  0  0  0  0  0  0
   11.6461    2.9770    0.0000 F   0  0  0  0  0  0  0  0  0  0  0  0
    6.3112   -0.1032    0.0000 F   0  0  0  0  0  0  0  0  0  0  0  0
    7.8512   -2.7705    0.0000 F   0  0  0  0  0  0  0  0  0  0  0  0
   14.5197    1.0795    0.0000 F   0  0  0  0  0  0  0  0  0  0  0  0
   12.9797    3.7470    0.0000 F   0  0  0  0  0  0  0  0  0  0  0  0
    4.9775   -0.8732    0.0000 F   0  0  0  0  0  0  0  0  0  0  0  0
    6.5175   -3.5405    0.0000 F   0  0  0  0  0  0  0  0  0  0  0  0
   16.4171    3.9532    0.0000 F   0  0  0  0  0  0  0  0  0  0  0  0
   15.8534    1.8495    0.0000 F   0  0  0  0  0  0  0  0  0  0  0  0
   14.3134    4.5170    0.0000 F   0  0  0  0  0  0  0  0  0  0  0  0
    4.4137   -4.5170    0.0000 O   0  0  0  0  0  0  0  0  0  0  0  0
    9.7485    0.1032    0.0000 C   0  0  0  0  0  0  0  0  0  0  0  0
   11.0824    0.8732    0.0000 C   0  0  0  0  0  0  0  0  0  0  0  0
    8.4149   -0.6668    0.0000 C   0  0  0  0  0  0  0  0  0  0  0  0
   12.4161    1.6432    0.0000 C   0  0  0  0  0  0  0  0  0  0  0  0
    7.0812   -1.4368    0.0000 C   0  0  0  0  0  0  0  0  0  0  0  0
   13.7497    2.4132    0.0000 C   0  0  0  0  0  0  0  0  0  0  0  0
    5.7475   -2.2070    0.0000 C   0  0  0  0  0  0  0  0  0  0  0  0
   15.0834    3.1832    0.0000 C   0  0  0  0  0  0  0  0  0  0  0  0
    4.4137   -2.9770    0.0000 C   0  0  0  0  0  0  0  0  0  0  0  0
  1 28  1  0  0  0  0
  2 20  1  0  0  0  0
  3 20  1  0  0  0  0
  4 21  1  0  0  0  0
  5 21  1  0  0  0  0
  6 22  1  0  0  0  0
  7 22  1  0  0  0  0
  8 23  1  0  0  0  0
  9 23  1  0  0  0  0
 10 24  1  0  0  0  0
 11 24  1  0  0  0  0
 12 25  1  0  0  0  0
 13 25  1  0  0  0  0
 14 26  1  0  0  0  0
 15 26  1  0  0  0  0
 16 27  1  0  0  0  0
 17 27  1  0  0  0  0
 18 27  1  0  0  0  0
 19 28  2  0  0  0  0
 20 21  1  0  0  0  0
 20 22  1  0  0  0  0
 21 23  1  0  0  0  0
 22 24  1  0  0  0  0
 23 25  1  0  0  0  0
 24 26  1  0  0  0  0
 25 27  1  0  0  0  0
 26 28  1  0  0  0  0
M  END
>  <INPUT>
DTXSID00379925

>  <FOUND_BY>
DSSTox_Substance_Id

>  <DTXSID>
DTXSID00379925

>  <PREFERRED_NAME>
Perfluorononanoyl chloride

>  <CASRN>
52447-23-1

>  <INCHIKEY>
MPWXHQITWLFMQM-UHFFFAOYSA-N

>  <IUPAC_NAME>
Heptadecafluorononanoyl chloride

>  <SMILES>
FC(F)(F)C(F)(F)C(F)(F)C(F)(F)C(F)(F)C(F)(F)C(F)(F)C(F)(F)C(Cl)=O

>  <INCHI_STRING>
InChI=1S/C9ClF17O/c10-1(28)2(11,12)3(13,14)4(15,16)5(17,18)6(19,20)7(21,22)8(23,24)9(25,26)27

>  <MOLECULAR_FORMULA>
C9ClF17O

>  <AVERAGE_MASS>
482.52

>  <MONOISOTOPIC_MASS>
481.9366211

>  <MOL_FILE>
MOL_FILE

$$$$

  -INDIGO-02112615072D

 10  9  0  0  0  0  0  0  0  0999 V2000
    5.8044    1.6755    0.0000 F   0  0  0  0  0  0  0  0  0  0  0  0
    7.3444   -0.9918    0.0000 F   0  0  0  0  0  0  0  0  0  0  0  0
    9.2417    1.8820    0.0000 F   0  0  0  0  0  0  0  0  0  0  0  0
    7.1381    2.4455    0.0000 F   0  0  0  0  0  0  0  0  0  0  0  0
    8.6781   -0.2218    0.0000 F   0  0  0  0  0  0  0  0  0  0  0  0
    3.9069    0.3420    0.0000 N   0  0  0  0  0  0  0  0  0  0  0  0
    5.2407   -1.9682    0.0000 N   0  0  0  0  0  0  0  0  0  0  0  0
    6.5744    0.3420    0.0000 C   0  0  0  0  0  0  0  0  0  0  0  0
    7.9081    1.1120    0.0000 C   0  0  0  0  0  0  0  0  0  0  0  0
    5.2407   -0.4282    0.0000 C   0  0  0  0  0  0  0  0  0  0  0  0
  1  8  1  0  0  0  0
  2  8  1  0  0  0  0
  3  9  1  0  0  0  0
  4  9  1  0  0  0  0
  5  9  1  0  0  0  0
  6 10  1  0  0  0  0
  7 10  2  0  0  0  0
  8  9  1  0  0  0  0
  8 10  1  0  0  0  0
M  END
>  <INPUT>
DTXSID30394964

>  <FOUND_BY>
DSSTox_Substance_Id

>  <DTXSID>
DTXSID30394964

>  <PREFERRED_NAME>
Pentafluoropropylamidine

>  <CASRN>
422-62-8

>  <INCHIKEY>
UNRVJNUSAVOPFF-UHFFFAOYSA-N

>  <IUPAC_NAME>
2,2,3,3,3-Pentafluoropropanimidamide

>  <SMILES>
NC(=N)C(F)(F)C(F)(F)F

>  <INCHI_STRING>
InChI=1S/C3H3F5N2/c4-2(5,1(9)10)3(6,7)8/h(H3,9,10)

>  <MOLECULAR_FORMULA>
C3H3F5N2

>  <AVERAGE_MASS>
162.063

>  <MONOISOTOPIC_MASS>
162.02163892

>  <MOL_FILE>
MOL_FILE

$$$$

  -INDIGO-02112615072D

 23 22  0  0  0  0  0  0  0  0999 V2000
   11.8201    1.4874    0.0000 F   0  0  0  0  0  0  0  0  0  0  0  0
   11.8201   -1.5926    0.0000 F   0  0  0  0  0  0  0  0  0  0  0  0
   10.2801    1.4874    0.0000 F   0  0  0  0  0  0  0  0  0  0  0  0
   10.2801   -1.5926    0.0000 F   0  0  0  0  0  0  0  0  0  0  0  0
    8.7401    1.4874    0.0000 F   0  0  0  0  0  0  0  0  0  0  0  0
    8.7401   -1.5926    0.0000 F   0  0  0  0  0  0  0  0  0  0  0  0
   13.3601    1.4874    0.0000 F   0  0  0  0  0  0  0  0  0  0  0  0
   13.3601   -1.5926    0.0000 F   0  0  0  0  0  0  0  0  0  0  0  0
   14.9001    1.4874    0.0000 F   0  0  0  0  0  0  0  0  0  0  0  0
   14.9001   -1.5926    0.0000 F   0  0  0  0  0  0  0  0  0  0  0  0
   17.9801   -0.0526    0.0000 F   0  0  0  0  0  0  0  0  0  0  0  0
   16.4401    1.4874    0.0000 F   0  0  0  0  0  0  0  0  0  0  0  0
   16.4401   -1.5926    0.0000 F   0  0  0  0  0  0  0  0  0  0  0  0
    4.1201   -2.7200    0.0000 O   0  0  0  0  0  0  0  0  0  0  0  0
   10.2801   -0.0526    0.0000 C   0  0  0  0  0  0  0  0  0  0  0  0
   11.8201   -0.0526    0.0000 C   0  0  0  0  0  0  0  0  0  0  0  0
    8.7401   -0.0526    0.0000 C   0  0  0  0  0  0  0  0  0  0  0  0
   13.3601   -0.0526    0.0000 C   0  0  0  0  0  0  0  0  0  0  0  0
    7.2001   -0.0526    0.0000 C   0  0  0  0  0  0  0  0  0  0  0  0
   14.9001   -0.0526    0.0000 C   0  0  0  0  0  0  0  0  0  0  0  0
    6.4301   -1.3863    0.0000 C   0  0  0  0  0  0  0  0  0  0  0  0
   16.4401   -0.0526    0.0000 C   0  0  0  0  0  0  0  0  0  0  0  0
    4.8901   -1.3863    0.0000 C   0  0  0  0  0  0  0  0  0  0  0  0
  1 16  1  0  0  0  0
  2 16  1  0  0  0  0
  3 15  1  0  0  0  0
  4 15  1  0  0  0  0
  5 17  1  0  0  0  0
  6 17  1  0  0  0  0
  7 18  1  0  0  0  0
  8 18  1  0  0  0  0
  9 20  1  0  0  0  0
 10 20  1  0  0  0  0
 11 22  1  0  0  0  0
 12 22  1  0  0  0  0
 13 22  1  0  0  0  0
 14 23  1  0  0  0  0
 15 16  1  0  0  0  0
 15 17  1  0  0  0  0
 16 18  1  0  0  0  0
 17 19  1  0  0  0  0
 18 20  1  0  0  0  0
 19 21  1  0  0  0  0
 20 22  1  0  0  0  0
 21 23  1  0  0  0  0
M  END
>  <INPUT>
DTXSID70379871

>  <FOUND_BY>
DSSTox_Substance_Id

>  <DTXSID>
DTXSID70379871

>  <PREFERRED_NAME>
3-(Perfluorohexyl)propanol

>  <CASRN>
80806-68-4

>  <INCHIKEY>
HMGDEQANNRNNKX-UHFFFAOYSA-N

>  <IUPAC_NAME>
4,4,5,5,6,6,7,7,8,8,9,9,9-Tridecafluorononan-1-ol

>  <SMILES>
OCCCC(F)(F)C(F)(F)C(F)(F)C(F)(F)C(F)(F)C(F)(F)F

>  <INCHI_STRING>
InChI=1S/C9H7F13O/c10-4(11,2-1-3-23)5(12,13)6(14,15)7(16,17)8(18,19)9(20,21)22/h23H,1-3H2

>  <MOLECULAR_FORMULA>
C9H7F13O

>  <AVERAGE_MASS>
378.133

>  <MONOISOTOPIC_MASS>
378.028930964

>  <MOL_FILE>
MOL_FILE

$$$$

  -INDIGO-02112615072D

 12 11  0  0  0  0  0  0  0  0999 V2000
    2.6884   -2.1105    0.0000 C   0  0  0  0  0  0  0  0  0  0  0  0
    1.3644   -1.3241    0.0000 C   0  0  0  0  0  0  0  0  0  0  0  0
    2.6884   -3.6361    0.0000 C   0  0  0  0  0  0  0  0  0  0  0  0
    4.0327   -1.3241    0.0000 O   0  0  0  0  0  0  0  0  0  0  0  0
    0.5781   -2.6683    0.0000 F   0  0  0  0  0  0  0  0  0  0  0  0
    2.1306    0.0000    0.0000 F   0  0  0  0  0  0  0  0  0  0  0  0
    0.0000   -0.5578    0.0000 F   0  0  0  0  0  0  0  0  0  0  0  0
    4.2410   -3.6361    0.0000 F   0  0  0  0  0  0  0  0  0  0  0  0
    1.1359   -3.6361    0.0000 F   0  0  0  0  0  0  0  0  0  0  0  0
    2.6884   -5.1887    0.0000 F   0  0  0  0  0  0  0  0  0  0  0  0
    5.3567   -2.1105    0.0000 C   0  0  0  0  0  0  0  0  0  0  0  0
    6.7211   -1.3241    0.0000 F   0  0  0  0  0  0  0  0  0  0  0  0
  1  2  1  0  0  0  0
  1  3  1  0  0  0  0
  1  4  1  0  0  0  0
  2  5  1  0  0  0  0
  2  6  1  0  0  0  0
  2  7  1  0  0  0  0
  3  8  1  0  0  0  0
  3  9  1  0  0  0  0
  3 10  1  0  0  0  0
  4 11  1  0  0  0  0
 11 12  1  0  0  0  0
M  END
>  <INPUT>
DTXSID8046614

>  <FOUND_BY>
DSSTox_Substance_Id

>  <DTXSID>
DTXSID8046614

>  <PREFERRED_NAME>
Sevoflurane

>  <CASRN>
28523-86-6

>  <INCHIKEY>
DFEYYRMXOJXZRJ-UHFFFAOYSA-N

>  <IUPAC_NAME>
1,1,1,3,3,3-Hexafluoro-2-(fluoromethoxy)propane

>  <SMILES>
FCOC(C(F)(F)F)C(F)(F)F

>  <INCHI_STRING>
InChI=1S/C4H3F7O/c5-1-12-2(3(6,7)8)4(9,10)11/h2H,1H2


>  <MOLECULAR_FORMULA>
C4H3F7O

>  <AVERAGE_MASS>
200.056

>  <MONOISOTOPIC_MASS>
200.007211858

>  <MOL_FILE>
MOL_FILE

$$$$

  -INDIGO-02112615072D

 27 26  0  0  0  0  0  0  0  0999 V2000
    5.7475   -2.3100    0.0000 Si  0  0  0  0  0  0  0  0  0  0  0  0
    8.9785   -0.2065    0.0000 F   0  0  0  0  0  0  0  0  0  0  0  0
   10.5187   -2.8737    0.0000 F   0  0  0  0  0  0  0  0  0  0  0  0
   10.3124    0.5637    0.0000 F   0  0  0  0  0  0  0  0  0  0  0  0
   11.8524   -2.1037    0.0000 F   0  0  0  0  0  0  0  0  0  0  0  0
   11.6461    1.3337    0.0000 F   0  0  0  0  0  0  0  0  0  0  0  0
   13.1861   -1.3337    0.0000 F   0  0  0  0  0  0  0  0  0  0  0  0
   12.9797    2.1037    0.0000 F   0  0  0  0  0  0  0  0  0  0  0  0
   14.5197   -0.5637    0.0000 F   0  0  0  0  0  0  0  0  0  0  0  0
   15.8534    0.2065    0.0000 F   0  0  0  0  0  0  0  0  0  0  0  0
   14.3134    2.8737    0.0000 F   0  0  0  0  0  0  0  0  0  0  0  0
   17.7509    3.0800    0.0000 F   0  0  0  0  0  0  0  0  0  0  0  0
   17.1873    0.9765    0.0000 F   0  0  0  0  0  0  0  0  0  0  0  0
   15.6471    3.6437    0.0000 F   0  0  0  0  0  0  0  0  0  0  0  0
    4.4137   -3.0800    0.0000 O   0  0  0  0  0  0  0  0  0  0  0  0
    4.9775   -0.9765    0.0000 O   0  0  0  0  0  0  0  0  0  0  0  0
    9.7485   -1.5400    0.0000 C   0  0  0  0  0  0  0  0  0  0  0  0
    8.4149   -2.3100    0.0000 C   0  0  0  0  0  0  0  0  0  0  0  0
   11.0824   -0.7700    0.0000 C   0  0  0  0  0  0  0  0  0  0  0  0
    7.0812   -1.5400    0.0000 C   0  0  0  0  0  0  0  0  0  0  0  0
   12.4161    0.0000    0.0000 C   0  0  0  0  0  0  0  0  0  0  0  0
   13.7497    0.7700    0.0000 C   0  0  0  0  0  0  0  0  0  0  0  0
   15.0834    1.5400    0.0000 C   0  0  0  0  0  0  0  0  0  0  0  0
    6.5175   -3.6437    0.0000 C   0  0  0  0  0  0  0  0  0  0  0  0
   16.4171    2.3100    0.0000 C   0  0  0  0  0  0  0  0  0  0  0  0
    3.0800   -2.3100    0.0000 C   0  0  0  0  0  0  0  0  0  0  0  0
    5.7475    0.3575    0.0000 C   0  0  0  0  0  0  0  0  0  0  0  0
  1 15  1  0  0  0  0
  1 16  1  0  0  0  0
  1 20  1  0  0  0  0
  1 24  1  0  0  0  0
  2 17  1  0  0  0  0
  3 17  1  0  0  0  0
  4 19  1  0  0  0  0
  5 19  1  0  0  0  0
  6 21  1  0  0  0  0
  7 21  1  0  0  0  0
  8 22  1  0  0  0  0
  9 22  1  0  0  0  0
 10 23  1  0  0  0  0
 11 23  1  0  0  0  0
 12 25  1  0  0  0  0
 13 25  1  0  0  0  0
 14 25  1  0  0  0  0
 15 26  1  0  0  0  0
 16 27  1  0  0  0  0
 17 18  1  0  0  0  0
 17 19  1  0  0  0  0
 18 20  1  0  0  0  0
 19 21  1  0  0  0  0
 21 22  1  0  0  0  0
 22 23  1  0  0  0  0
 23 25  1  0  0  0  0
M  END
>  <INPUT>
DTXSID40235137

>  <FOUND_BY>
DSSTox_Substance_Id

>  <DTXSID>
DTXSID40235137

>  <PREFERRED_NAME>
Dimethoxymethyl((perfluorohexyl)ethyl)silane

>  <CASRN>
85857-17-6

>  <INCHIKEY>
UWZZATWXHUNWJV-UHFFFAOYSA-N

>  <IUPAC_NAME>
Dimethoxy(methyl)(3,3,4,4,5,5,6,6,7,7,8,8,8-tridecafluorooctyl)silane

>  <SMILES>
CO[Si](C)(CCC(F)(F)C(F)(F)C(F)(F)C(F)(F)C(F)(F)C(F)(F)F)OC

>  <INCHI_STRING>
InChI=1S/C11H13F13O2Si/c1-25-27(3,26-2)5-4-6(12,13)7(14,15)8(16,17)9(18,19)10(20,21)11(22,23)24/h4-5H2,1-3H3

>  <MOLECULAR_FORMULA>
C11H13F13O2Si

>  <AVERAGE_MASS>
452.287

>  <MONOISOTOPIC_MASS>
452.047722313

>  <MOL_FILE>
MOL_FILE

$$$$

  -INDIGO-02112615072D

 28 27  0  0  0  0  0  0  0  0999 V2000
    5.7475   -1.6432    0.0000 Si  0  0  0  0  0  0  0  0  0  0  0  0
    8.9785    0.4605    0.0000 F   0  0  0  0  0  0  0  0  0  0  0  0
   10.5187   -2.2070    0.0000 F   0  0  0  0  0  0  0  0  0  0  0  0
   10.3124    1.2305    0.0000 F   0  0  0  0  0  0  0  0  0  0  0  0
   11.8524   -1.4368    0.0000 F   0  0  0  0  0  0  0  0  0  0  0  0
   11.6461    2.0005    0.0000 F   0  0  0  0  0  0  0  0  0  0  0  0
   13.1861   -0.6668    0.0000 F   0  0  0  0  0  0  0  0  0  0  0  0
   12.9797    2.7705    0.0000 F   0  0  0  0  0  0  0  0  0  0  0  0
   14.5197    0.1032    0.0000 F   0  0  0  0  0  0  0  0  0  0  0  0
   15.8534    0.8732    0.0000 F   0  0  0  0  0  0  0  0  0  0  0  0
   14.3134    3.5405    0.0000 F   0  0  0  0  0  0  0  0  0  0  0  0
   17.7509    3.7470    0.0000 F   0  0  0  0  0  0  0  0  0  0  0  0
   17.1873    1.6432    0.0000 F   0  0  0  0  0  0  0  0  0  0  0  0
   15.6471    4.3105    0.0000 F   0  0  0  0  0  0  0  0  0  0  0  0
    4.4137   -2.4132    0.0000 O   0  0  0  0  0  0  0  0  0  0  0  0
    4.9775   -0.3095    0.0000 O   0  0  0  0  0  0  0  0  0  0  0  0
    6.5175   -2.9770    0.0000 O   0  0  0  0  0  0  0  0  0  0  0  0
    9.7485   -0.8732    0.0000 C   0  0  0  0  0  0  0  0  0  0  0  0
   11.0824   -0.1032    0.0000 C   0  0  0  0  0  0  0  0  0  0  0  0
    8.4149   -1.6432    0.0000 C   0  0  0  0  0  0  0  0  0  0  0  0
   12.4161    0.6668    0.0000 C   0  0  0  0  0  0  0  0  0  0  0  0
    7.0812   -0.8732    0.0000 C   0  0  0  0  0  0  0  0  0  0  0  0
   13.7497    1.4368    0.0000 C   0  0  0  0  0  0  0  0  0  0  0  0
   15.0834    2.2070    0.0000 C   0  0  0  0  0  0  0  0  0  0  0  0
   16.4171    2.9770    0.0000 C   0  0  0  0  0  0  0  0  0  0  0  0
    5.7475    1.0242    0.0000 C   0  0  0  0  0  0  0  0  0  0  0  0
    5.7475   -4.3105    0.0000 C   0  0  0  0  0  0  0  0  0  0  0  0
    3.0800   -1.6432    0.0000 C   0  0  0  0  0  0  0  0  0  0  0  0
  1 15  1  0  0  0  0
  1 16  1  0  0  0  0
  1 17  1  0  0  0  0
  1 22  1  0  0  0  0
  2 18  1  0  0  0  0
  3 18  1  0  0  0  0
  4 19  1  0  0  0  0
  5 19  1  0  0  0  0
  6 21  1  0  0  0  0
  7 21  1  0  0  0  0
  8 23  1  0  0  0  0
  9 23  1  0  0  0  0
 10 24  1  0  0  0  0
 11 24  1  0  0  0  0
 12 25  1  0  0  0  0
 13 25  1  0  0  0  0
 14 25  1  0  0  0  0
 15 28  1  0  0  0  0
 16 26  1  0  0  0  0
 17 27  1  0  0  0  0
 18 19  1  0  0  0  0
 18 20  1  0  0  0  0
 19 21  1  0  0  0  0
 20 22  1  0  0  0  0
 21 23  1  0  0  0  0
 23 24  1  0  0  0  0
 24 25  1  0  0  0  0
M  END
>  <INPUT>
DTXSID80235136

>  <FOUND_BY>
DSSTox_Substance_Id

>  <DTXSID>
DTXSID80235136

>  <PREFERRED_NAME>
[2-(Perfluorohexyl)ethyl]trimethoxysilane

>  <CASRN>
85857-16-5

>  <INCHIKEY>
BVQYIDJXNYHKRK-UHFFFAOYSA-N

>  <IUPAC_NAME>
Trimethoxy(3,3,4,4,5,5,6,6,7,7,8,8,8-tridecafluorooctyl)silane

>  <SMILES>
CO[Si](CCC(F)(F)C(F)(F)C(F)(F)C(F)(F)C(F)(F)C(F)(F)F)(OC)OC

>  <INCHI_STRING>
InChI=1S/C11H13F13O3Si/c1-25-28(26-2,27-3)5-4-6(12,13)7(14,15)8(16,17)9(18,19)10(20,21)11(22,23)24/h4-5H2,1-3H3

>  <MOLECULAR_FORMULA>
C11H13F13O3Si

>  <AVERAGE_MASS>
468.286

>  <MONOISOTOPIC_MASS>
468.042636933

>  <MOL_FILE>
MOL_FILE

$$$$

  -INDIGO-02112615072D

 32 31  0  0  0  0  0  0  0  0999 V2000
   12.9797    0.6668    0.0000 F   0  0  0  0  0  0  0  0  0  0  0  0
   14.5197   -2.0005    0.0000 F   0  0  0  0  0  0  0  0  0  0  0  0
   14.3134    1.4368    0.0000 F   0  0  0  0  0  0  0  0  0  0  0  0
   15.8534   -1.2305    0.0000 F   0  0  0  0  0  0  0  0  0  0  0  0
   11.6461   -0.1032    0.0000 F   0  0  0  0  0  0  0  0  0  0  0  0
   13.1861   -2.7705    0.0000 F   0  0  0  0  0  0  0  0  0  0  0  0
   15.6471    2.2070    0.0000 F   0  0  0  0  0  0  0  0  0  0  0  0
   17.1873   -0.4605    0.0000 F   0  0  0  0  0  0  0  0  0  0  0  0
   10.3124   -0.8732    0.0000 F   0  0  0  0  0  0  0  0  0  0  0  0
   11.8524   -3.5405    0.0000 F   0  0  0  0  0  0  0  0  0  0  0  0
   18.5209    0.3095    0.0000 F   0  0  0  0  0  0  0  0  0  0  0  0
   16.9809    2.9770    0.0000 F   0  0  0  0  0  0  0  0  0  0  0  0
   19.8546    1.0795    0.0000 F   0  0  0  0  0  0  0  0  0  0  0  0
   18.3146    3.7470    0.0000 F   0  0  0  0  0  0  0  0  0  0  0  0
   21.7521    3.9532    0.0000 F   0  0  0  0  0  0  0  0  0  0  0  0
   21.1882    1.8495    0.0000 F   0  0  0  0  0  0  0  0  0  0  0  0
   19.6482    4.5170    0.0000 F   0  0  0  0  0  0  0  0  0  0  0  0
    5.7475   -2.2070    0.0000 O   0  0  0  0  0  0  0  0  0  0  0  0
    4.4137   -4.5170    0.0000 O   0  0  0  0  0  0  0  0  0  0  0  0
   13.7497   -0.6668    0.0000 C   0  0  0  0  0  0  0  0  0  0  0  0
   15.0834    0.1032    0.0000 C   0  0  0  0  0  0  0  0  0  0  0  0
   12.4161   -1.4368    0.0000 C   0  0  0  0  0  0  0  0  0  0  0  0
   16.4171    0.8732    0.0000 C   0  0  0  0  0  0  0  0  0  0  0  0
   11.0824   -2.2070    0.0000 C   0  0  0  0  0  0  0  0  0  0  0  0
   17.7509    1.6432    0.0000 C   0  0  0  0  0  0  0  0  0  0  0  0
    9.7485   -2.9770    0.0000 C   0  0  0  0  0  0  0  0  0  0  0  0
   19.0846    2.4132    0.0000 C   0  0  0  0  0  0  0  0  0  0  0  0
    8.4149   -2.2070    0.0000 C   0  0  0  0  0  0  0  0  0  0  0  0
   20.4182    3.1832    0.0000 C   0  0  0  0  0  0  0  0  0  0  0  0
    7.0812   -2.9770    0.0000 C   0  0  0  0  0  0  0  0  0  0  0  0
    4.4137   -2.9770    0.0000 C   0  0  0  0  0  0  0  0  0  0  0  0
    3.0800   -2.2070    0.0000 C   0  0  0  0  0  0  0  0  0  0  0  0
  1 20  1  0  0  0  0
  2 20  1  0  0  0  0
  3 21  1  0  0  0  0
  4 21  1  0  0  0  0
  5 22  1  0  0  0  0
  6 22  1  0  0  0  0
  7 23  1  0  0  0  0
  8 23  1  0  0  0  0
  9 24  1  0  0  0  0
 10 24  1  0  0  0  0
 11 25  1  0  0  0  0
 12 25  1  0  0  0  0
 13 27  1  0  0  0  0
 14 27  1  0  0  0  0
 15 29  1  0  0  0  0
 16 29  1  0  0  0  0
 17 29  1  0  0  0  0
 18 30  1  0  0  0  0
 18 31  1  0  0  0  0
 19 31  2  0  0  0  0
 20 21  1  0  0  0  0
 20 22  1  0  0  0  0
 21 23  1  0  0  0  0
 22 24  1  0  0  0  0
 23 25  1  0  0  0  0
 24 26  1  0  0  0  0
 25 27  1  0  0  0  0
 26 28  1  0  0  0  0
 27 29  1  0  0  0  0
 28 30  1  0  0  0  0
 31 32  1  0  0  0  0
M  END
>  <INPUT>
DTXSID80382073

>  <FOUND_BY>
DSSTox_Substance_Id

>  <DTXSID>
DTXSID80382073

>  <PREFERRED_NAME>
(Perfluorooctyl)propyl acetate

>  <CASRN>
150225-00-6

>  <INCHIKEY>
SMQMUBNEBGDJAY-UHFFFAOYSA-N

>  <IUPAC_NAME>
4,4,5,5,6,6,7,7,8,8,9,9,10,10,11,11,11-Heptadecafluoroundecyl acetate

>  <SMILES>
CC(=O)OCCCC(F)(F)C(F)(F)C(F)(F)C(F)(F)C(F)(F)C(F)(F)C(F)(F)C(F)(F)F

>  <INCHI_STRING>
InChI=1S/C13H9F17O2/c1-5(31)32-4-2-3-6(14,15)7(16,17)8(18,19)9(20,21)10(22,23)11(24,25)12(26,27)13(28,29)30/h2-4H2,1H3

>  <MOLECULAR_FORMULA>
C13H9F17O2

>  <AVERAGE_MASS>
520.186

>  <MONOISOTOPIC_MASS>
520.033108301

>  <MOL_FILE>
MOL_FILE

$$$$

  -INDIGO-02112615072D

  9  8  0  0  0  0  0  0  0  0999 V2000
    3.0800   -1.5400    0.0000 F   0  0  0  0  0  0  0  0  0  0  0  0
    1.5400   -1.5400    0.0000 C   0  0  0  0  0  0  0  0  0  0  0  0
    0.0000   -1.5400    0.0000 F   0  0  0  0  0  0  0  0  0  0  0  0
    1.5400   -3.0800    0.0000 C   0  0  0  0  0  0  0  0  0  0  0  0
    0.2063   -3.8500    0.0000 C   0  0  0  0  0  0  0  0  0  0  0  0
    1.5400    0.0000    0.0000 C   0  0  0  0  0  0  0  0  0  0  0  0
    1.5400    1.5400    0.0000 F   0  0  0  0  0  0  0  0  0  0  0  0
    3.0800    0.0000    0.0000 F   0  0  0  0  0  0  0  0  0  0  0  0
    0.0000    0.0000    0.0000 Br  0  0  0  0  0  0  0  0  0  0  0  0
  1  2  1  0  0  0  0
  2  3  1  0  0  0  0
  2  4  1  0  0  0  0
  4  5  2  0  0  0  0
  2  6  1  0  0  0  0
  6  7  1  0  0  0  0
  6  8  1  0  0  0  0
  6  9  1  0  0  0  0
M  END
>  <INPUT>
DTXSID4066389

>  <FOUND_BY>
DSSTox_Substance_Id

>  <DTXSID>
DTXSID4066389

>  <PREFERRED_NAME>
2-Vinyl(1-bromoperfluoroethane)

>  <CASRN>
18599-22-9

>  <INCHIKEY>
GVCWGFZDSIWLMO-UHFFFAOYSA-N

>  <IUPAC_NAME>
4-Bromo-3,3,4,4-tetrafluorobut-1-ene

>  <SMILES>
FC(F)(Br)C(F)(F)C=C

>  <INCHI_STRING>
InChI=1S/C4H3BrF4/c1-2-3(6,7)4(5,8)9/h2H,1H2

>  <MOLECULAR_FORMULA>
C4H3BrF4

>  <AVERAGE_MASS>
206.966

>  <MONOISOTOPIC_MASS>
205.935426

>  <MOL_FILE>
MOL_FILE

$$$$

  -INDIGO-02112615072D

 13 12  0  0  0  0  0  0  0  0999 V2000
    8.4149    2.6520    0.0000 F   0  0  0  0  0  0  0  0  0  0  0  0
    7.8512    0.5482    0.0000 F   0  0  0  0  0  0  0  0  0  0  0  0
    6.3112    3.2155    0.0000 F   0  0  0  0  0  0  0  0  0  0  0  0
    3.0800    2.6520    0.0000 F   0  0  0  0  0  0  0  0  0  0  0  0
    3.6437    0.5482    0.0000 F   0  0  0  0  0  0  0  0  0  0  0  0
    5.1837    3.2155    0.0000 F   0  0  0  0  0  0  0  0  0  0  0  0
    4.4137   -2.7382    0.0000 O   0  0  0  0  0  0  0  0  0  0  0  0
    3.0800   -0.4282    0.0000 O   0  0  0  0  0  0  0  0  0  0  0  0
    5.7475    1.1120    0.0000 C   0  0  0  0  0  0  0  0  0  0  0  0
    7.0812    1.8820    0.0000 C   0  0  0  0  0  0  0  0  0  0  0  0
    4.4137    1.8820    0.0000 C   0  0  0  0  0  0  0  0  0  0  0  0
    5.7475   -0.4282    0.0000 C   0  0  0  0  0  0  0  0  0  0  0  0
    4.4137   -1.1982    0.0000 C   0  0  0  0  0  0  0  0  0  0  0  0
  1 10  1  0  0  0  0
  2 10  1  0  0  0  0
  3 10  1  0  0  0  0
  4 11  1  0  0  0  0
  5 11  1  0  0  0  0
  6 11  1  0  0  0  0
  7 13  1  0  0  0  0
  8 13  2  0  0  0  0
  9 10  1  0  0  0  0
  9 11  1  0  0  0  0
  9 12  2  0  0  0  0
 12 13  1  0  0  0  0
M  END
>  <INPUT>
DTXSID30170109

>  <FOUND_BY>
DSSTox_Substance_Id

>  <DTXSID>
DTXSID30170109

>  <PREFERRED_NAME>
3,3-Bis(trifluoromethyl)-2-propenoic acid

>  <CASRN>
1763-28-6

>  <INCHIKEY>
ZSBJCNVMTCMOBW-UHFFFAOYSA-N

>  <IUPAC_NAME>
4,4,4-Trifluoro-3-(trifluoromethyl)but-2-enoic acid

>  <SMILES>
OC(=O)C=C(C(F)(F)F)C(F)(F)F

>  <INCHI_STRING>
InChI=1S/C5H2F6O2/c6-4(7,8)2(1-3(12)13)5(9,10)11/h1H,(H,12,13)

>  <MOLECULAR_FORMULA>
C5H2F6O2

>  <AVERAGE_MASS>
208.059

>  <MONOISOTOPIC_MASS>
207.995898282

>  <MOL_FILE>
MOL_FILE

$$$$

  -INDIGO-02112615072D

 11 10  0  0  0  0  0  0  0  0999 V2000
    5.7475    1.8219    0.0000 F   0  0  0  0  0  0  0  0  0  0  0  0
    3.0800   -1.2581    0.0000 F   0  0  0  0  0  0  0  0  0  0  0  0
    3.6437    0.8454    0.0000 F   0  0  0  0  0  0  0  0  0  0  0  0
    5.1837   -1.8219    0.0000 F   0  0  0  0  0  0  0  0  0  0  0  0
    9.7485    1.0519    0.0000 F   0  0  0  0  0  0  0  0  0  0  0  0
    9.1849   -1.0519    0.0000 F   0  0  0  0  0  0  0  0  0  0  0  0
    7.6449    1.6154    0.0000 F   0  0  0  0  0  0  0  0  0  0  0  0
    5.7475    0.2819    0.0000 C   0  0  0  0  0  0  0  0  0  0  0  0
    7.0812   -0.4881    0.0000 C   0  0  0  0  0  0  0  0  0  0  0  0
    4.4137   -0.4881    0.0000 C   0  0  0  0  0  0  0  0  0  0  0  0
    8.4149    0.2819    0.0000 C   0  0  0  0  0  0  0  0  0  0  0  0
  1  8  1  0  0  0  0
  2 10  1  0  0  0  0
  3 10  1  0  0  0  0
  4 10  1  0  0  0  0
  5 11  1  0  0  0  0
  6 11  1  0  0  0  0
  7 11  1  0  0  0  0
  8  9  1  0  0  0  0
  8 10  1  0  0  0  0
  9 11  1  0  0  0  0
M  END
>  <INPUT>
DTXSID70380841

>  <FOUND_BY>
DSSTox_Substance_Id

>  <DTXSID>
DTXSID70380841

>  <PREFERRED_NAME>
1H,2H,2H-Perfluorobutane

>  <CASRN>
86884-16-4

>  <INCHIKEY>
KPIWBTHJFIZHLS-UHFFFAOYNA-N

>  <IUPAC_NAME>
1,1,1,2,4,4,4-Heptafluorobutane

>  <SMILES>
FC(CC(F)(F)F)C(F)(F)F

>  <INCHI_STRING>
InChI=1S/C4H3F7/c5-2(4(9,10)11)1-3(6,7)8/h2H,1H2

>  <MOLECULAR_FORMULA>
C4H3F7

>  <AVERAGE_MASS>
184.057

>  <MONOISOTOPIC_MASS>
184.012297238

>  <MOL_FILE>
MOL_FILE

$$$$

  -INDIGO-02112615072D

 30 29  0  0  0  0  0  0  0  0999 V2000
   10.3124    1.4368    0.0000 F   0  0  0  0  0  0  0  0  0  0  0  0
   11.8524   -1.2305    0.0000 F   0  0  0  0  0  0  0  0  0  0  0  0
   11.6461    2.2070    0.0000 F   0  0  0  0  0  0  0  0  0  0  0  0
   13.1861   -0.4605    0.0000 F   0  0  0  0  0  0  0  0  0  0  0  0
    8.9785    0.6668    0.0000 F   0  0  0  0  0  0  0  0  0  0  0  0
   10.5187   -2.0005    0.0000 F   0  0  0  0  0  0  0  0  0  0  0  0
   14.5197    0.3095    0.0000 F   0  0  0  0  0  0  0  0  0  0  0  0
   12.9797    2.9770    0.0000 F   0  0  0  0  0  0  0  0  0  0  0  0
    7.6449   -0.1032    0.0000 F   0  0  0  0  0  0  0  0  0  0  0  0
    9.1849   -2.7705    0.0000 F   0  0  0  0  0  0  0  0  0  0  0  0
   15.8534    1.0795    0.0000 F   0  0  0  0  0  0  0  0  0  0  0  0
   14.3134    3.7470    0.0000 F   0  0  0  0  0  0  0  0  0  0  0  0
    6.3112   -0.8732    0.0000 F   0  0  0  0  0  0  0  0  0  0  0  0
    7.8512   -3.5405    0.0000 F   0  0  0  0  0  0  0  0  0  0  0  0
   17.7509    3.9532    0.0000 F   0  0  0  0  0  0  0  0  0  0  0  0
   17.1873    1.8495    0.0000 F   0  0  0  0  0  0  0  0  0  0  0  0
   15.6471    4.5170    0.0000 F   0  0  0  0  0  0  0  0  0  0  0  0
    5.7475   -4.5170    0.0000 F   0  0  0  0  0  0  0  0  0  0  0  0
    3.0800   -2.9770    0.0000 F   0  0  0  0  0  0  0  0  0  0  0  0
    4.4137   -0.6668    0.0000 F   0  0  0  0  0  0  0  0  0  0  0  0
   11.0824    0.1032    0.0000 C   0  0  0  0  0  0  0  0  0  0  0  0
   12.4161    0.8732    0.0000 C   0  0  0  0  0  0  0  0  0  0  0  0
    9.7485   -0.6668    0.0000 C   0  0  0  0  0  0  0  0  0  0  0  0
   13.7497    1.6432    0.0000 C   0  0  0  0  0  0  0  0  0  0  0  0
    8.4149   -1.4368    0.0000 C   0  0  0  0  0  0  0  0  0  0  0  0
   15.0834    2.4132    0.0000 C   0  0  0  0  0  0  0  0  0  0  0  0
    7.0812   -2.2070    0.0000 C   0  0  0  0  0  0  0  0  0  0  0  0
   16.4171    3.1832    0.0000 C   0  0  0  0  0  0  0  0  0  0  0  0
    5.7475   -2.9770    0.0000 C   0  0  0  0  0  0  0  0  0  0  0  0
    4.4137   -2.2070    0.0000 C   0  0  0  0  0  0  0  0  0  0  0  0
  1 21  1  0  0  0  0
  2 21  1  0  0  0  0
  3 22  1  0  0  0  0
  4 22  1  0  0  0  0
  5 23  1  0  0  0  0
  6 23  1  0  0  0  0
  7 24  1  0  0  0  0
  8 24  1  0  0  0  0
  9 25  1  0  0  0  0
 10 25  1  0  0  0  0
 11 26  1  0  0  0  0
 12 26  1  0  0  0  0
 13 27  1  0  0  0  0
 14 27  1  0  0  0  0
 15 28  1  0  0  0  0
 16 28  1  0  0  0  0
 17 28  1  0  0  0  0
 18 29  1  0  0  0  0
 19 30  1  0  0  0  0
 20 30  1  0  0  0  0
 21 22  1  0  0  0  0
 21 23  1  0  0  0  0
 22 24  1  0  0  0  0
 23 25  1  0  0  0  0
 24 26  1  0  0  0  0
 25 27  1  0  0  0  0
 26 28  1  0  0  0  0
 27 29  1  0  0  0  0
 29 30  2  0  0  0  0
M  END
>  <INPUT>
DTXSID60188833

>  <FOUND_BY>
DSSTox_Substance_Id

>  <DTXSID>
DTXSID60188833

>  <PREFERRED_NAME>
Perfluoro-1-decene

>  <CASRN>
35328-43-9

>  <INCHIKEY>
IMVVEWPCRIJQCA-UHFFFAOYSA-N

>  <IUPAC_NAME>
1,1,2,3,3,4,4,5,5,6,6,7,7,8,8,9,9,10,10,10-Icosafluorodec-1-ene

>  <SMILES>
FC(F)=C(F)C(F)(F)C(F)(F)C(F)(F)C(F)(F)C(F)(F)C(F)(F)C(F)(F)C(F)(F)F

>  <INCHI_STRING>
InChI=1S/C10F20/c11-1(2(12)13)3(14,15)4(16,17)5(18,19)6(20,21)7(22,23)8(24,25)9(26,27)10(28,29)30

>  <MOLECULAR_FORMULA>
C10F20

>  <AVERAGE_MASS>
500.078

>  <MONOISOTOPIC_MASS>
499.96806326

>  <MOL_FILE>
MOL_FILE

$$$$

  -INDIGO-02112615072D

 18 17  0  0  0  0  0  0  0  0999 V2000
    7.1381    0.9486    0.0000 F   0  0  0  0  0  0  0  0  0  0  0  0
    8.6781   -1.7186    0.0000 F   0  0  0  0  0  0  0  0  0  0  0  0
   10.0117   -0.9486    0.0000 F   0  0  0  0  0  0  0  0  0  0  0  0
    8.4717    1.7186    0.0000 F   0  0  0  0  0  0  0  0  0  0  0  0
    5.8044    0.1786    0.0000 F   0  0  0  0  0  0  0  0  0  0  0  0
    7.3444   -2.4886    0.0000 F   0  0  0  0  0  0  0  0  0  0  0  0
   11.3456   -0.1786    0.0000 F   0  0  0  0  0  0  0  0  0  0  0  0
    9.8056    2.4886    0.0000 F   0  0  0  0  0  0  0  0  0  0  0  0
    5.2407   -3.4651    0.0000 O   0  0  0  0  0  0  0  0  0  0  0  0
   11.9091    3.4651    0.0000 O   0  0  0  0  0  0  0  0  0  0  0  0
    3.9069   -1.1551    0.0000 N   0  0  0  0  0  0  0  0  0  0  0  0
   13.2429    1.1551    0.0000 N   0  0  0  0  0  0  0  0  0  0  0  0
    7.9081   -0.3851    0.0000 C   0  0  0  0  0  0  0  0  0  0  0  0
    9.2417    0.3851    0.0000 C   0  0  0  0  0  0  0  0  0  0  0  0
    6.5744   -1.1551    0.0000 C   0  0  0  0  0  0  0  0  0  0  0  0
   10.5756    1.1551    0.0000 C   0  0  0  0  0  0  0  0  0  0  0  0
    5.2407   -1.9251    0.0000 C   0  0  0  0  0  0  0  0  0  0  0  0
   11.9091    1.9251    0.0000 C   0  0  0  0  0  0  0  0  0  0  0  0
  1 13  1  0  0  0  0
  2 13  1  0  0  0  0
  3 14  1  0  0  0  0
  4 14  1  0  0  0  0
  5 15  1  0  0  0  0
  6 15  1  0  0  0  0
  7 16  1  0  0  0  0
  8 16  1  0  0  0  0
  9 17  2  0  0  0  0
 10 18  2  0  0  0  0
 11 17  1  0  0  0  0
 12 18  1  0  0  0  0
 13 14  1  0  0  0  0
 13 15  1  0  0  0  0
 14 16  1  0  0  0  0
 15 17  1  0  0  0  0
 16 18  1  0  0  0  0
M  END
>  <INPUT>
DTXSID80310730

>  <FOUND_BY>
DSSTox_Substance_Id

>  <DTXSID>
DTXSID80310730

>  <PREFERRED_NAME>
Octafluoroadipamide

>  <CASRN>
355-66-8

>  <INCHIKEY>
SVURUIRNGAQISR-UHFFFAOYSA-N

>  <IUPAC_NAME>
2,2,3,3,4,4,5,5-Octafluorohexanediamide

>  <SMILES>
NC(=O)C(F)(F)C(F)(F)C(F)(F)C(F)(F)C(N)=O

>  <INCHI_STRING>
InChI=1S/C6H4F8N2O2/c7-3(8,1(15)17)5(11,12)6(13,14)4(9,10)2(16)18/h(H2,15,17)(H2,16,18)

>  <MOLECULAR_FORMULA>
C6H4F8N2O2

>  <AVERAGE_MASS>
288.097

>  <MONOISOTOPIC_MASS>
288.014502681

>  <MOL_FILE>
MOL_FILE

$$$$

  -INDIGO-02112615072D

 10  9  0  0  0  0  0  0  0  0999 V2000
    4.9775    1.4368    0.0000 F   0  0  0  0  0  0  0  0  0  0  0  0
    6.5175   -1.2305    0.0000 F   0  0  0  0  0  0  0  0  0  0  0  0
    8.4149    1.6432    0.0000 F   0  0  0  0  0  0  0  0  0  0  0  0
    6.3112    2.2070    0.0000 F   0  0  0  0  0  0  0  0  0  0  0  0
    7.8512   -0.4605    0.0000 F   0  0  0  0  0  0  0  0  0  0  0  0
    4.4137   -2.2070    0.0000 O   0  0  0  0  0  0  0  0  0  0  0  0
    5.7475    0.1032    0.0000 C   0  0  0  0  0  0  0  0  0  0  0  0
    7.0812    0.8732    0.0000 C   0  0  0  0  0  0  0  0  0  0  0  0
    4.4137   -0.6668    0.0000 C   0  0  0  0  0  0  0  0  0  0  0  0
    3.0800    0.1032    0.0000 C   0  0  0  0  0  0  0  0  0  0  0  0
  1  7  1  0  0  0  0
  2  7  1  0  0  0  0
  3  8  1  0  0  0  0
  4  8  1  0  0  0  0
  5  8  1  0  0  0  0
  6  9  2  0  0  0  0
  7  8  1  0  0  0  0
  7  9  1  0  0  0  0
  9 10  1  0  0  0  0
M  END
>  <INPUT>
DTXSID90285748

>  <FOUND_BY>
DSSTox_Substance_Id

>  <DTXSID>
DTXSID90285748

>  <PREFERRED_NAME>
Methyl perfluoroethyl ketone

>  <CASRN>
374-41-4

>  <INCHIKEY>
ZHJANTJICQVKOI-UHFFFAOYSA-N

>  <IUPAC_NAME>
3,3,4,4,4-Pentafluorobutan-2-one

>  <SMILES>
CC(=O)C(F)(F)C(F)(F)F

>  <INCHI_STRING>
InChI=1S/C4H3F5O/c1-2(10)3(5,6)4(7,8)9/h1H3

>  <MOLECULAR_FORMULA>
C4H3F5O

>  <AVERAGE_MASS>
162.059

>  <MONOISOTOPIC_MASS>
162.010405532

>  <MOL_FILE>
MOL_FILE

$$$$

  -INDIGO-02112615072D

 10  9  0  0  0  0  0  0  0  0999 V2000
   -0.7699    1.4368    0.0000 F   0  0  0  0  0  0  0  0  0  0  0  0
    0.7701   -1.2305    0.0000 F   0  0  0  0  0  0  0  0  0  0  0  0
    2.6674    1.6432    0.0000 F   0  0  0  0  0  0  0  0  0  0  0  0
    0.5638    2.2070    0.0000 F   0  0  0  0  0  0  0  0  0  0  0  0
    2.1038   -0.4605    0.0000 F   0  0  0  0  0  0  0  0  0  0  0  0
   -2.6674    0.1032    0.0000 O   0  0  0  0  0  0  0  0  0  0  0  0
    0.0001    0.1032    0.0000 C   0  0  0  0  0  0  0  0  0  0  0  0
   -1.3336   -0.6668    0.0000 C   0  0  0  0  0  0  0  0  0  0  0  0
    1.3338    0.8732    0.0000 C   0  0  0  0  0  0  0  0  0  0  0  0
   -1.3336   -2.2070    0.0000 C   0  0  0  0  0  0  0  0  0  0  0  0
  1  7  1  0  0  0  0
  2  7  1  0  0  0  0
  3  9  1  0  0  0  0
  4  9  1  0  0  0  0
  5  9  1  0  0  0  0
  6  8  1  0  0  0  0
  7  8  1  0  0  0  0
  7  9  1  0  0  0  0
  8 10  1  0  0  0  0
M  END
>  <INPUT>
DTXSID70880134

>  <FOUND_BY>
DSSTox_Substance_Id

>  <DTXSID>
DTXSID70880134

>  <PREFERRED_NAME>
1-Pentafluoroethylethanol

>  <CASRN>
374-40-3

>  <INCHIKEY>
BUGIAHXXBFVPGW-UHFFFAOYNA-N

>  <IUPAC_NAME>
3,3,4,4,4-Pentafluorobutan-2-ol

>  <SMILES>
CC(O)C(F)(F)C(F)(F)F

>  <INCHI_STRING>
InChI=1S/C4H5F5O/c1-2(10)3(5,6)4(7,8)9/h2,10H,1H3

>  <MOLECULAR_FORMULA>
C4H5F5O

>  <AVERAGE_MASS>
164.075

>  <MONOISOTOPIC_MASS>
164.026055596

>  <MOL_FILE>
MOL_FILE

$$$$

  -INDIGO-02112615072D

 19 18  0  0  0  0  0  0  0  0999 V2000
    8.9785    0.8454    0.0000 F   0  0  0  0  0  0  0  0  0  0  0  0
   10.5187   -1.8219    0.0000 F   0  0  0  0  0  0  0  0  0  0  0  0
   10.3124    1.6154    0.0000 F   0  0  0  0  0  0  0  0  0  0  0  0
   11.8524   -1.0519    0.0000 F   0  0  0  0  0  0  0  0  0  0  0  0
    6.3112   -1.8219    0.0000 F   0  0  0  0  0  0  0  0  0  0  0  0
    7.8512    0.8454    0.0000 F   0  0  0  0  0  0  0  0  0  0  0  0
   15.0834   -0.4881    0.0000 F   0  0  0  0  0  0  0  0  0  0  0  0
   14.5197    1.6154    0.0000 F   0  0  0  0  0  0  0  0  0  0  0  0
   12.9797   -1.0519    0.0000 F   0  0  0  0  0  0  0  0  0  0  0  0
    8.4149   -1.2581    0.0000 O   0  0  0  0  0  0  0  0  0  0  0  0
   12.4161    1.0519    0.0000 O   0  0  0  0  0  0  0  0  0  0  0  0
    4.4137   -0.4881    0.0000 O   0  0  0  0  0  0  0  0  0  0  0  0
    5.7475    1.8219    0.0000 O   0  0  0  0  0  0  0  0  0  0  0  0
    9.7485   -0.4881    0.0000 C   0  0  0  0  0  0  0  0  0  0  0  0
   11.0824    0.2819    0.0000 C   0  0  0  0  0  0  0  0  0  0  0  0
    7.0812   -0.4881    0.0000 C   0  0  0  0  0  0  0  0  0  0  0  0
   13.7497    0.2819    0.0000 C   0  0  0  0  0  0  0  0  0  0  0  0
    5.7475    0.2819    0.0000 C   0  0  0  0  0  0  0  0  0  0  0  0
    3.0800    0.2819    0.0000 C   0  0  0  0  0  0  0  0  0  0  0  0
  1 14  1  0  0  0  0
  2 14  1  0  0  0  0
  3 15  1  0  0  0  0
  4 15  1  0  0  0  0
  5 16  1  0  0  0  0
  6 16  1  0  0  0  0
  7 17  1  0  0  0  0
  8 17  1  0  0  0  0
  9 17  1  0  0  0  0
 10 14  1  0  0  0  0
 10 16  1  0  0  0  0
 11 15  1  0  0  0  0
 11 17  1  0  0  0  0
 12 18  1  0  0  0  0
 12 19  1  0  0  0  0
 13 18  2  0  0  0  0
 14 15  1  0  0  0  0
 16 18  1  0  0  0  0
M  END
>  <INPUT>
DTXSID40377687

>  <FOUND_BY>
DSSTox_Substance_Id

>  <DTXSID>
DTXSID40377687

>  <PREFERRED_NAME>
Methyl perfluoro-3,6-dioxaheptanoate

>  <CASRN>
39187-41-2

>  <INCHIKEY>
NDRNDAZKCQFBST-UHFFFAOYSA-N

>  <IUPAC_NAME>
Methyl difluoro[1,1,2,2-tetrafluoro-2-(trifluoromethoxy)ethoxy]acetate

>  <SMILES>
COC(=O)C(F)(F)OC(F)(F)C(F)(F)OC(F)(F)F

>  <INCHI_STRING>
InChI=1S/C6H3F9O4/c1-17-2(16)3(7,8)18-4(9,10)5(11,12)19-6(13,14)15/h1H3

>  <MOLECULAR_FORMULA>
C6H3F9O4

>  <AVERAGE_MASS>
310.072

>  <MONOISOTOPIC_MASS>
309.988762044

>  <MOL_FILE>
MOL_FILE

$$$$

  -INDIGO-02112615072D

 29 28  0  0  0  0  0  0  0  0999 V2000
    6.4040    7.5794    0.0000 O   0  0  0  0  0  0  0  0  0  0  0  0
    5.6340    6.2457    0.0000 C   0  0  0  0  0  0  0  0  0  0  0  0
    4.0941    6.2456    0.0000 O   0  0  0  0  0  0  0  0  0  0  0  0
    3.3241    7.5793    0.0000 C   0  0  0  0  0  0  0  0  0  0  0  0
    1.7840    7.5793    0.0000 C   0  0  0  0  0  0  0  0  0  0  0  0
    1.7840    6.0393    0.0000 F   0  0  0  0  0  0  0  0  0  0  0  0
    1.7841    9.1194    0.0000 F   0  0  0  0  0  0  0  0  0  0  0  0
    0.2440    7.5794    0.0000 C   0  0  0  0  0  0  0  0  0  0  0  0
    0.2440    6.0393    0.0000 F   0  0  0  0  0  0  0  0  0  0  0  0
    0.2440    9.1194    0.0000 F   0  0  0  0  0  0  0  0  0  0  0  0
   -1.2959    7.5793    0.0000 C   0  0  0  0  0  0  0  0  0  0  0  0
   -1.2959    6.0393    0.0000 F   0  0  0  0  0  0  0  0  0  0  0  0
   -1.2959    9.1194    0.0000 F   0  0  0  0  0  0  0  0  0  0  0  0
   -2.8359    7.5793    0.0000 C   0  0  0  0  0  0  0  0  0  0  0  0
   -2.8360    6.0393    0.0000 F   0  0  0  0  0  0  0  0  0  0  0  0
   -2.8359    9.1194    0.0000 F   0  0  0  0  0  0  0  0  0  0  0  0
   -4.3760    7.5794    0.0000 C   0  0  0  0  0  0  0  0  0  0  0  0
   -4.3760    6.0393    0.0000 F   0  0  0  0  0  0  0  0  0  0  0  0
   -4.3760    9.1194    0.0000 F   0  0  0  0  0  0  0  0  0  0  0  0
   -5.9159    7.5793    0.0000 C   0  0  0  0  0  0  0  0  0  0  0  0
   -5.9159    6.0393    0.0000 F   0  0  0  0  0  0  0  0  0  0  0  0
   -5.9159    9.1193    0.0000 F   0  0  0  0  0  0  0  0  0  0  0  0
   -7.4559    7.5793    0.0000 C   0  0  0  0  0  0  0  0  0  0  0  0
   -8.9960    7.5794    0.0000 F   0  0  0  0  0  0  0  0  0  0  0  0
   -7.4560    6.0393    0.0000 F   0  0  0  0  0  0  0  0  0  0  0  0
   -7.4559    9.1194    0.0000 F   0  0  0  0  0  0  0  0  0  0  0  0
    6.4041    4.9120    0.0000 C   0  0  0  0  0  0  0  0  0  0  0  0
    7.9441    4.9119    0.0000 C   0  0  0  0  0  0  0  0  0  0  0  0
    5.6341    3.5783    0.0000 C   0  0  0  0  0  0  0  0  0  0  0  0
  1  2  2  0  0  0  0
  2  3  1  0  0  0  0
  3  4  1  0  0  0  0
  4  5  1  0  0  0  0
  5  6  1  0  0  0  0
  5  7  1  0  0  0  0
  5  8  1  0  0  0  0
  8  9  1  0  0  0  0
  8 10  1  0  0  0  0
  8 11  1  0  0  0  0
 11 12  1  0  0  0  0
 11 13  1  0  0  0  0
 11 14  1  0  0  0  0
 14 15  1  0  0  0  0
 14 16  1  0  0  0  0
 14 17  1  0  0  0  0
 17 18  1  0  0  0  0
 17 19  1  0  0  0  0
 17 20  1  0  0  0  0
 20 21  1  0  0  0  0
 20 22  1  0  0  0  0
 20 23  1  0  0  0  0
 23 24  1  0  0  0  0
 23 25  1  0  0  0  0
 23 26  1  0  0  0  0
  2 27  1  0  0  0  0
 27 28  2  0  0  0  0
 27 29  1  0  0  0  0
M  END
>  <INPUT>
DTXSID5063235

>  <FOUND_BY>
DSSTox_Substance_Id

>  <DTXSID>
DTXSID5063235

>  <PREFERRED_NAME>
(Perfluoroheptyl)methyl methacrylate

>  <CASRN>
3934-23-4

>  <INCHIKEY>
RUEKTOVLVIXOHT-UHFFFAOYSA-N

>  <IUPAC_NAME>
2,2,3,3,4,4,5,5,6,6,7,7,8,8,8-Pentadecafluorooctyl 2-methylprop-2-enoate

>  <SMILES>
CC(=C)C(=O)OCC(F)(F)C(F)(F)C(F)(F)C(F)(F)C(F)(F)C(F)(F)C(F)(F)F

>  <INCHI_STRING>
InChI=1S/C12H7F15O2/c1-4(2)5(28)29-3-6(13,14)7(15,16)8(17,18)9(19,20)10(21,22)11(23,24)12(25,26)27/h1,3H2,2H3


>  <MOLECULAR_FORMULA>
C12H7F15O2

>  <AVERAGE_MASS>
468.162

>  <MONOISOTOPIC_MASS>
468.02065191

>  <MOL_FILE>
MOL_FILE

$$$$

  -INDIGO-02112615072D

 31 30  0  0  0  0  0  0  0  0999 V2000
    3.4506    0.0053    0.0000 C   0  0  0  0  0  0  0  0  0  0  0  0
    1.9106    0.0047    0.0000 C   0  0  0  0  0  0  0  0  0  0  0  0
    0.3794    0.0097    0.0000 C   0  0  0  0  0  0  0  0  0  0  0  0
   -1.1462    0.0052    0.0000 C   0  0  0  0  0  0  0  0  0  0  0  0
   -2.6862    0.0046    0.0000 C   0  0  0  0  0  0  0  0  0  0  0  0
   -4.2212   -0.0047    0.0000 C   0  0  0  0  0  0  0  0  0  0  0  0
   -5.7612   -0.0054    0.0000 C   0  0  0  0  0  0  0  0  0  0  0  0
   -7.3015   -0.0057    0.0000 C   0  0  0  0  0  0  0  0  0  0  0  0
    4.9909    0.0056    0.0000 S   0  0  0  0  0  0  0  0  0  0  0  0
    4.9956    1.5372    0.0000 O   0  0  0  0  0  0  0  0  0  0  0  0
    4.9916   -1.5344    0.0000 O   0  0  0  0  0  0  0  0  0  0  0  0
    6.5309    0.0063    0.0000 N   0  0  0  0  0  0  0  0  0  0  0  0
    7.3015    1.3396    0.0000 C   0  0  0  0  0  0  0  0  0  0  0  0
    8.8415    1.3403    0.0000 C   0  0  0  0  0  0  0  0  0  0  0  0
    3.4513   -1.5347    0.0000 F   0  0  0  0  0  0  0  0  0  0  0  0
    3.4556    1.5365    0.0000 F   0  0  0  0  0  0  0  0  0  0  0  0
    1.9113   -1.5353    0.0000 F   0  0  0  0  0  0  0  0  0  0  0  0
    1.9149    1.5361    0.0000 F   0  0  0  0  0  0  0  0  0  0  0  0
    0.3892   -1.5251    0.0000 F   0  0  0  0  0  0  0  0  0  0  0  0
    0.3893    1.5315    0.0000 F   0  0  0  0  0  0  0  0  0  0  0  0
   -1.1416    1.5362    0.0000 F   0  0  0  0  0  0  0  0  0  0  0  0
   -1.1508   -1.5256    0.0000 F   0  0  0  0  0  0  0  0  0  0  0  0
   -2.6816    1.5355    0.0000 F   0  0  0  0  0  0  0  0  0  0  0  0
   -2.6912   -1.5266    0.0000 F   0  0  0  0  0  0  0  0  0  0  0  0
   -4.2219    1.5353    0.0000 F   0  0  0  0  0  0  0  0  0  0  0  0
   -4.2260   -1.5363    0.0000 F   0  0  0  0  0  0  0  0  0  0  0  0
   -5.7619    1.5346    0.0000 F   0  0  0  0  0  0  0  0  0  0  0  0
   -5.7662   -1.5365    0.0000 F   0  0  0  0  0  0  0  0  0  0  0  0
   -7.3062   -1.5372    0.0000 F   0  0  0  0  0  0  0  0  0  0  0  0
   -7.3021    1.5343    0.0000 F   0  0  0  0  0  0  0  0  0  0  0  0
   -8.8415   -0.0063    0.0000 F   0  0  0  0  0  0  0  0  0  0  0  0
  1  2  1  0  0  0  0
  1  9  1  0  0  0  0
  1 15  1  0  0  0  0
  1 16  1  0  0  0  0
  2  3  1  0  0  0  0
  2 17  1  0  0  0  0
  2 18  1  0  0  0  0
  3  4  1  0  0  0  0
  3 19  1  0  0  0  0
  3 20  1  0  0  0  0
  4  5  1  0  0  0  0
  4 21  1  0  0  0  0
  4 22  1  0  0  0  0
  5  6  1  0  0  0  0
  5 23  1  0  0  0  0
  5 24  1  0  0  0  0
  6  7  1  0  0  0  0
  6 25  1  0  0  0  0
  6 26  1  0  0  0  0
  7  8  1  0  0  0  0
  7 27  1  0  0  0  0
  7 28  1  0  0  0  0
  8 29  1  0  0  0  0
  8 30  1  0  0  0  0
  8 31  1  0  0  0  0
  9 10  2  0  0  0  0
  9 12  1  0  0  0  0
  9 11  2  0  0  0  0
 12 13  1  0  0  0  0
 13 14  1  0  0  0  0
M  END
>  <INPUT>
DTXSID1032646

>  <FOUND_BY>
DSSTox_Substance_Id

>  <DTXSID>
DTXSID1032646

>  <PREFERRED_NAME>
N-Ethylperfluorooctane sulfonamide

>  <CASRN>
4151-50-2

>  <INCHIKEY>
CCEKAJIANROZEO-UHFFFAOYSA-N

>  <IUPAC_NAME>
N-Ethyl-1,1,2,2,3,3,4,4,5,5,6,6,7,7,8,8,8-heptadecafluorooctane-1-sulfonamide

>  <SMILES>
CCNS(=O)(=O)C(F)(F)C(F)(F)C(F)(F)C(F)(F)C(F)(F)C(F)(F)C(F)(F)C(F)(F)F

>  <INCHI_STRING>
InChI=1S/C10H6F17NO2S/c1-2-28-31(29,30)10(26,27)8(21,22)6(17,18)4(13,14)3(11,12)5(15,16)7(19,20)9(23,24)25/h28H,2H2,1H3


>  <MOLECULAR_FORMULA>
C10H6F17NO2S

>  <AVERAGE_MASS>
527.2

>  <MONOISOTOPIC_MASS>
526.984778382

>  <MOL_FILE>
MOL_FILE

$$$$

  -INDIGO-02112615072D

 15 14  0  0  0  0  0  0  0  0999 V2000
    9.7485    2.2070    0.0000 F   0  0  0  0  0  0  0  0  0  0  0  0
    7.6449    1.2305    0.0000 F   0  0  0  0  0  0  0  0  0  0  0  0
    9.1849   -1.4368    0.0000 F   0  0  0  0  0  0  0  0  0  0  0  0
   12.4161   -0.8732    0.0000 F   0  0  0  0  0  0  0  0  0  0  0  0
   11.8524    1.2305    0.0000 F   0  0  0  0  0  0  0  0  0  0  0  0
   10.3124   -1.4368    0.0000 F   0  0  0  0  0  0  0  0  0  0  0  0
    3.0800   -1.6432    0.0000 F   0  0  0  0  0  0  0  0  0  0  0  0
    3.6437    0.4605    0.0000 F   0  0  0  0  0  0  0  0  0  0  0  0
    5.1837   -2.2070    0.0000 F   0  0  0  0  0  0  0  0  0  0  0  0
    7.0812   -0.8732    0.0000 O   0  0  0  0  0  0  0  0  0  0  0  0
    9.7485    0.6668    0.0000 C   0  0  0  0  0  0  0  0  0  0  0  0
    8.4149   -0.1032    0.0000 C   0  0  0  0  0  0  0  0  0  0  0  0
   11.0824   -0.1032    0.0000 C   0  0  0  0  0  0  0  0  0  0  0  0
    5.7475   -0.1032    0.0000 C   0  0  0  0  0  0  0  0  0  0  0  0
    4.4137   -0.8732    0.0000 C   0  0  0  0  0  0  0  0  0  0  0  0
  1 11  1  0  0  0  0
  2 12  1  0  0  0  0
  3 12  1  0  0  0  0
  4 13  1  0  0  0  0
  5 13  1  0  0  0  0
  6 13  1  0  0  0  0
  7 15  1  0  0  0  0
  8 15  1  0  0  0  0
  9 15  1  0  0  0  0
 10 12  1  0  0  0  0
 10 14  1  0  0  0  0
 11 12  1  0  0  0  0
 11 13  1  0  0  0  0
 14 15  1  0  0  0  0
M  END
>  <INPUT>
DTXSID20379346

>  <FOUND_BY>
DSSTox_Substance_Id

>  <DTXSID>
DTXSID20379346

>  <PREFERRED_NAME>
(2H-Perfluoropropyl)(1H,1H-perfluoroethyl)ether

>  <CASRN>
993-95-3

>  <INCHIKEY>
LMRGTZDDPWGCGL-UHFFFAOYNA-N

>  <IUPAC_NAME>
1,1,1,2,3,3-Hexafluoro-3-(2,2,2-trifluoroethoxy)propane

>  <SMILES>
FC(C(F)(F)F)C(F)(F)OCC(F)(F)F

>  <INCHI_STRING>
InChI=1S/C5H3F9O/c6-2(4(10,11)12)5(13,14)15-1-3(7,8)9/h2H,1H2

>  <MOLECULAR_FORMULA>
C5H3F9O

>  <AVERAGE_MASS>
250.064

>  <MONOISOTOPIC_MASS>
250.004018184

>  <MOL_FILE>
MOL_FILE

$$$$

  -INDIGO-02112615072D

 15 14  0  0  0  0  0  0  0  0999 V2000
    7.0812   -1.5400    0.0000 F   0  0  0  0  0  0  0  0  0  0  0  0
    7.0812    1.5400    0.0000 F   0  0  0  0  0  0  0  0  0  0  0  0
    5.5411   -1.5400    0.0000 F   0  0  0  0  0  0  0  0  0  0  0  0
    5.5412    1.5401    0.0000 F   0  0  0  0  0  0  0  0  0  0  0  0
    8.6212   -1.5401    0.0000 F   0  0  0  0  0  0  0  0  0  0  0  0
    8.6213    1.5400    0.0000 F   0  0  0  0  0  0  0  0  0  0  0  0
    3.2311    1.3338    0.0000 F   0  0  0  0  0  0  0  0  0  0  0  0
    3.2313   -1.3337    0.0000 F   0  0  0  0  0  0  0  0  0  0  0  0
   10.9313   -1.3338    0.0000 F   0  0  0  0  0  0  0  0  0  0  0  0
   10.9313    1.3336    0.0000 O   0  0  0  0  0  0  0  0  0  0  0  0
    7.0812    0.0000    0.0000 C   0  0  0  0  0  0  0  0  0  0  0  0
    5.5412    0.0000    0.0000 C   0  0  0  0  0  0  0  0  0  0  0  0
    8.6212    0.0000    0.0000 C   0  0  0  0  0  0  0  0  0  0  0  0
    4.0013    0.0000    0.0000 C   0  0  0  0  0  0  0  0  0  0  0  0
   10.1613   -0.0001    0.0000 C   0  0  0  0  0  0  0  0  0  0  0  0
  1 11  1  0  0  0  0
  2 11  1  0  0  0  0
  3 12  1  0  0  0  0
  4 12  1  0  0  0  0
  5 13  1  0  0  0  0
  6 13  1  0  0  0  0
  7 14  1  0  0  0  0
  8 14  1  0  0  0  0
 10 15  2  0  0  0  0
 11 12  1  0  0  0  0
 11 13  1  0  0  0  0
 12 14  1  0  0  0  0
 13 15  1  0  0  0  0
  9 15  1  0  0  0  0
M  END
>  <INPUT>
DTXSID70379730

>  <FOUND_BY>
DSSTox_Substance_Id

>  <DTXSID>
DTXSID70379730

>  <PREFERRED_NAME>
5H-Octafluoropentanoyl fluoride

>  <CASRN>
813-03-6

>  <INCHIKEY>
UPRLRVYBTHGWJH-UHFFFAOYSA-N

>  <IUPAC_NAME>
2,2,3,3,4,4,5,5-Octafluoropentanoyl fluoride

>  <SMILES>
FC(F)C(F)(F)C(F)(F)C(F)(F)C(F)=O

>  <INCHI_STRING>
InChI=1S/C5HF9O/c6-1(7)3(9,10)5(13,14)4(11,12)2(8)15/h1H


>  <MOLECULAR_FORMULA>
C5HF9O

>  <AVERAGE_MASS>
248.048

>  <MONOISOTOPIC_MASS>
247.988368119

>  <MOL_FILE>
MOL_FILE

$$$$

  -INDIGO-02112615072D

 18 17  0  0  0  0  0  0  0  0999 V2000
    6.3112    1.3337    0.0000 F   0  0  0  0  0  0  0  0  0  0  0  0
    7.8512   -1.3337    0.0000 F   0  0  0  0  0  0  0  0  0  0  0  0
    7.6449    2.1037    0.0000 F   0  0  0  0  0  0  0  0  0  0  0  0
    9.1849   -0.5637    0.0000 F   0  0  0  0  0  0  0  0  0  0  0  0
    4.9775    0.5637    0.0000 F   0  0  0  0  0  0  0  0  0  0  0  0
    6.5175   -2.1037    0.0000 F   0  0  0  0  0  0  0  0  0  0  0  0
   10.5187    0.2065    0.0000 F   0  0  0  0  0  0  0  0  0  0  0  0
    8.9785    2.8737    0.0000 F   0  0  0  0  0  0  0  0  0  0  0  0
    3.0800   -2.3100    0.0000 F   0  0  0  0  0  0  0  0  0  0  0  0
    3.6437   -0.2065    0.0000 F   0  0  0  0  0  0  0  0  0  0  0  0
    5.1837   -2.8737    0.0000 F   0  0  0  0  0  0  0  0  0  0  0  0
   12.4161    1.5400    0.0000 O   0  0  0  0  0  0  0  0  0  0  0  0
    7.0812    0.0000    0.0000 C   0  0  0  0  0  0  0  0  0  0  0  0
    8.4149    0.7700    0.0000 C   0  0  0  0  0  0  0  0  0  0  0  0
    5.7475   -0.7700    0.0000 C   0  0  0  0  0  0  0  0  0  0  0  0
    9.7485    1.5400    0.0000 C   0  0  0  0  0  0  0  0  0  0  0  0
    4.4137   -1.5400    0.0000 C   0  0  0  0  0  0  0  0  0  0  0  0
   11.0824    2.3100    0.0000 C   0  0  0  0  0  0  0  0  0  0  0  0
  1 13  1  0  0  0  0
  2 13  1  0  0  0  0
  3 14  1  0  0  0  0
  4 14  1  0  0  0  0
  5 15  1  0  0  0  0
  6 15  1  0  0  0  0
  7 16  1  0  0  0  0
  8 16  1  0  0  0  0
  9 17  1  0  0  0  0
 10 17  1  0  0  0  0
 11 17  1  0  0  0  0
 12 18  1  0  0  0  0
 13 14  1  0  0  0  0
 13 15  1  0  0  0  0
 14 16  1  0  0  0  0
 15 17  1  0  0  0  0
 16 18  1  0  0  0  0
M  END
>  <INPUT>
DTXSID00382070

>  <FOUND_BY>
DSSTox_Substance_Id

>  <DTXSID>
DTXSID00382070

>  <PREFERRED_NAME>
5:1 Fluorotelomer alcohol

>  <CASRN>
423-46-1

>  <INCHIKEY>
QZFZPVVDBGXQTB-UHFFFAOYSA-N

>  <IUPAC_NAME>
2,2,3,3,4,4,5,5,6,6,6-Undecafluorohexan-1-ol

>  <SMILES>
OCC(F)(F)C(F)(F)C(F)(F)C(F)(F)C(F)(F)F

>  <INCHI_STRING>
InChI=1S/C6H3F11O/c7-2(8,1-18)3(9,10)4(11,12)5(13,14)6(15,16)17/h18H,1H2

>  <MOLECULAR_FORMULA>
C6H3F11O

>  <AVERAGE_MASS>
300.071

>  <MONOISOTOPIC_MASS>
300.00082451

>  <MOL_FILE>
MOL_FILE

$$$$

  -INDIGO-02112615072D

 20 19  0  0  0  0  0  0  0  0999 V2000
    3.0800   -2.6951    0.0000 Br  0  0  0  0  0  0  0  0  0  0  0  0
   12.4161    2.6951    0.0000 Br  0  0  0  0  0  0  0  0  0  0  0  0
    6.3112    0.9486    0.0000 F   0  0  0  0  0  0  0  0  0  0  0  0
    9.1849   -0.9486    0.0000 F   0  0  0  0  0  0  0  0  0  0  0  0
    7.6449    1.7186    0.0000 F   0  0  0  0  0  0  0  0  0  0  0  0
    7.8512   -1.7186    0.0000 F   0  0  0  0  0  0  0  0  0  0  0  0
    4.9775    0.1786    0.0000 F   0  0  0  0  0  0  0  0  0  0  0  0
    6.5175   -2.4886    0.0000 F   0  0  0  0  0  0  0  0  0  0  0  0
   10.5187   -0.1786    0.0000 F   0  0  0  0  0  0  0  0  0  0  0  0
    8.9785    2.4886    0.0000 F   0  0  0  0  0  0  0  0  0  0  0  0
   11.8524    0.5914    0.0000 F   0  0  0  0  0  0  0  0  0  0  0  0
   10.3124    3.2586    0.0000 F   0  0  0  0  0  0  0  0  0  0  0  0
    3.6437   -0.5914    0.0000 F   0  0  0  0  0  0  0  0  0  0  0  0
    5.1837   -3.2586    0.0000 F   0  0  0  0  0  0  0  0  0  0  0  0
    7.0812   -0.3851    0.0000 C   0  0  0  0  0  0  0  0  0  0  0  0
    8.4149    0.3851    0.0000 C   0  0  0  0  0  0  0  0  0  0  0  0
    5.7475   -1.1551    0.0000 C   0  0  0  0  0  0  0  0  0  0  0  0
    9.7485    1.1551    0.0000 C   0  0  0  0  0  0  0  0  0  0  0  0
    4.4137   -1.9251    0.0000 C   0  0  0  0  0  0  0  0  0  0  0  0
   11.0824    1.9251    0.0000 C   0  0  0  0  0  0  0  0  0  0  0  0
  1 19  1  0  0  0  0
  2 20  1  0  0  0  0
  3 15  1  0  0  0  0
  4 16  1  0  0  0  0
  5 16  1  0  0  0  0
  6 15  1  0  0  0  0
  7 17  1  0  0  0  0
  8 17  1  0  0  0  0
  9 18  1  0  0  0  0
 10 18  1  0  0  0  0
 11 20  1  0  0  0  0
 12 20  1  0  0  0  0
 13 19  1  0  0  0  0
 14 19  1  0  0  0  0
 15 16  1  0  0  0  0
 15 17  1  0  0  0  0
 16 18  1  0  0  0  0
 17 19  1  0  0  0  0
 18 20  1  0  0  0  0
M  END
>  <INPUT>
DTXSID20335129

>  <FOUND_BY>
DSSTox_Substance_Id

>  <DTXSID>
DTXSID20335129

>  <PREFERRED_NAME>
1,6-Dibromododecafluorohexane

>  <CASRN>
918-22-9

>  <INCHIKEY>
SWAPKQWKFYIOJS-UHFFFAOYSA-N

>  <IUPAC_NAME>
1,6-Dibromo-1,1,2,2,3,3,4,4,5,5,6,6-dodecafluorohexane

>  <SMILES>
FC(F)(Br)C(F)(F)C(F)(F)C(F)(F)C(F)(F)C(F)(F)Br

>  <INCHI_STRING>
InChI=1S/C6Br2F12/c7-5(17,18)3(13,14)1(9,10)2(11,12)4(15,16)6(8,19)20

>  <MOLECULAR_FORMULA>
C6Br2F12

>  <AVERAGE_MASS>
459.855

>  <MONOISOTOPIC_MASS>
457.817514

>  <MOL_FILE>
MOL_FILE

$$$$

  -INDIGO-02112615072D

 16 15  0  0  0  0  0  0  0  0999 V2000
    4.9775    0.9486    0.0000 F   0  0  0  0  0  0  0  0  0  0  0  0
    6.5175   -1.7186    0.0000 F   0  0  0  0  0  0  0  0  0  0  0  0
   11.6461    1.7186    0.0000 F   0  0  0  0  0  0  0  0  0  0  0  0
   13.1861   -0.9486    0.0000 F   0  0  0  0  0  0  0  0  0  0  0  0
    3.0800   -0.3851    0.0000 F   0  0  0  0  0  0  0  0  0  0  0  0
    4.4137   -2.6951    0.0000 F   0  0  0  0  0  0  0  0  0  0  0  0
   15.0834    0.3851    0.0000 F   0  0  0  0  0  0  0  0  0  0  0  0
   13.7497    2.6951    0.0000 F   0  0  0  0  0  0  0  0  0  0  0  0
    7.0812    0.3851    0.0000 O   0  0  0  0  0  0  0  0  0  0  0  0
   11.0824   -0.3851    0.0000 O   0  0  0  0  0  0  0  0  0  0  0  0
    8.4149   -0.3851    0.0000 C   0  0  0  0  0  0  0  0  0  0  0  0
    9.7485    0.3851    0.0000 C   0  0  0  0  0  0  0  0  0  0  0  0
   12.4161    0.3851    0.0000 C   0  0  0  0  0  0  0  0  0  0  0  0
    5.7475   -0.3851    0.0000 C   0  0  0  0  0  0  0  0  0  0  0  0
    4.4137   -1.1551    0.0000 C   0  0  0  0  0  0  0  0  0  0  0  0
   13.7497    1.1551    0.0000 C   0  0  0  0  0  0  0  0  0  0  0  0
  1 14  1  0  0  0  0
  2 14  1  0  0  0  0
  3 13  1  0  0  0  0
  4 13  1  0  0  0  0
  5 15  1  0  0  0  0
  6 15  1  0  0  0  0
  7 16  1  0  0  0  0
  8 16  1  0  0  0  0
  9 11  1  0  0  0  0
  9 14  1  0  0  0  0
 10 12  1  0  0  0  0
 10 13  1  0  0  0  0
 11 12  1  0  0  0  0
 13 16  1  0  0  0  0
 14 15  1  0  0  0  0
M  END
>  <INPUT>
DTXSID80569266

>  <FOUND_BY>
DSSTox_Substance_Id

>  <DTXSID>
DTXSID80569266

>  <PREFERRED_NAME>
1,2-bis(1,1,2,2-Tetrafluoroethoxy)ethane

>  <CASRN>
358-39-4

>  <INCHIKEY>
WVRJJXQSRCWPNS-UHFFFAOYSA-N

>  <IUPAC_NAME>
1,1,2,2-Tetrafluoro-1-[2-(1,1,2,2-tetrafluoroethoxy)ethoxy]ethane

>  <SMILES>
FC(F)C(F)(F)OCCOC(F)(F)C(F)F

>  <INCHI_STRING>
InChI=1S/C6H6F8O2/c7-3(8)5(11,12)15-1-2-16-6(13,14)4(9)10/h3-4H,1-2H2

>  <MOLECULAR_FORMULA>
C6H6F8O2

>  <AVERAGE_MASS>
262.099

>  <MONOISOTOPIC_MASS>
262.024004737

>  <MOL_FILE>
MOL_FILE

$$$$

  -INDIGO-02112615072D

 13 12  0  0  0  0  0  0  0  0999 V2000
    1.5400    0.0000    0.0000 C   0  0  0  0  0  0  0  0  0  0  0  0
    2.8737    0.7700    0.0000 C   0  0  0  0  0  0  0  0  0  0  0  0
    2.8737    2.3100    0.0000 C   0  0  0  0  0  0  0  0  0  0  0  0
    2.8737    3.8500    0.0000 F   0  0  0  0  0  0  0  0  0  0  0  0
    1.3337    2.3100    0.0000 F   0  0  0  0  0  0  0  0  0  0  0  0
    4.4137    2.3100    0.0000 F   0  0  0  0  0  0  0  0  0  0  0  0
    4.2073    0.0000    0.0000 C   0  0  0  0  0  0  0  0  0  0  0  0
    4.2073   -1.5400    0.0000 O   0  0  0  0  0  0  0  0  0  0  0  0
    5.5410   -2.3100    0.0000 C   0  0  0  0  0  0  0  0  0  0  0  0
    5.5410    0.7700    0.0000 O   0  0  0  0  0  0  0  0  0  0  0  0
    0.7700    1.3337    0.0000 F   0  0  0  0  0  0  0  0  0  0  0  0
    2.3100   -1.3337    0.0000 F   0  0  0  0  0  0  0  0  0  0  0  0
    0.2063   -0.7700    0.0000 F   0  0  0  0  0  0  0  0  0  0  0  0
  1  2  1  0  0  0  0
  2  3  1  0  0  0  0
  3  4  1  0  0  0  0
  3  5  1  0  0  0  0
  3  6  1  0  0  0  0
  2  7  1  0  0  0  0
  7  8  1  0  0  0  0
  8  9  1  0  0  0  0
  7 10  2  0  0  0  0
  1 11  1  0  0  0  0
  1 12  1  0  0  0  0
  1 13  1  0  0  0  0
M  END
>  <INPUT>
DTXSID0073168

>  <FOUND_BY>
DSSTox_Substance_Id

>  <DTXSID>
DTXSID0073168

>  <PREFERRED_NAME>
Methyl 3,3,3-trifluoro-2-(trifluoromethyl)propionate

>  <CASRN>
360-54-3

>  <INCHIKEY>
JGGBVFLRNNDHCM-UHFFFAOYSA-N

>  <IUPAC_NAME>
Methyl 3,3,3-trifluoro-2-(trifluoromethyl)propanoate

>  <SMILES>
COC(=O)C(C(F)(F)F)C(F)(F)F

>  <INCHI_STRING>
InChI=1S/C5H4F6O2/c1-13-3(12)2(4(6,7)8)5(9,10)11/h2H,1H3

>  <MOLECULAR_FORMULA>
C5H4F6O2

>  <AVERAGE_MASS>
210.075

>  <MONOISOTOPIC_MASS>
210.011548347

>  <MOL_FILE>
MOL_FILE

$$$$

  -INDIGO-02112615072D

 12 11  0  0  0  0  0  0  0  0999 V2000
    8.4149    2.1205    0.0000 F   0  0  0  0  0  0  0  0  0  0  0  0
    7.8512    0.0170    0.0000 F   0  0  0  0  0  0  0  0  0  0  0  0
    6.3112    2.6843    0.0000 F   0  0  0  0  0  0  0  0  0  0  0  0
    3.0800    2.1205    0.0000 F   0  0  0  0  0  0  0  0  0  0  0  0
    3.6437    0.0170    0.0000 F   0  0  0  0  0  0  0  0  0  0  0  0
    5.1837    2.6843    0.0000 F   0  0  0  0  0  0  0  0  0  0  0  0
    4.4137   -1.7295    0.0000 O   0  0  0  0  0  0  0  0  0  0  0  0
    7.0812   -1.7295    0.0000 O   0  0  0  0  0  0  0  0  0  0  0  0
    5.7475    0.5805    0.0000 C   0  0  0  0  0  0  0  0  0  0  0  0
    7.0812    1.3505    0.0000 C   0  0  0  0  0  0  0  0  0  0  0  0
    4.4137    1.3505    0.0000 C   0  0  0  0  0  0  0  0  0  0  0  0
    5.7475   -0.9595    0.0000 C   0  0  0  0  0  0  0  0  0  0  0  0
  1 10  1  0  0  0  0
  2 10  1  0  0  0  0
  3 10  1  0  0  0  0
  4 11  1  0  0  0  0
  5 11  1  0  0  0  0
  6 11  1  0  0  0  0
  7 12  1  0  0  0  0
  8 12  2  0  0  0  0
  9 10  1  0  0  0  0
  9 11  1  0  0  0  0
  9 12  1  0  0  0  0
M  END
>  <INPUT>
DTXSID10327679

>  <FOUND_BY>
DSSTox_Substance_Id

>  <DTXSID>
DTXSID10327679

>  <PREFERRED_NAME>
2H-Perfluoroisobutyric acid

>  <CASRN>
564-10-3

>  <INCHIKEY>
RAEAYTICAPHWJW-UHFFFAOYSA-N

>  <IUPAC_NAME>
3,3,3-Trifluoro-2-(trifluoromethyl)propanoic acid

>  <SMILES>
OC(=O)C(C(F)(F)F)C(F)(F)F

>  <INCHI_STRING>
InChI=1S/C4H2F6O2/c5-3(6,7)1(2(11)12)4(8,9)10/h1H,(H,11,12)

>  <MOLECULAR_FORMULA>
C4H2F6O2

>  <AVERAGE_MASS>
196.048

>  <MONOISOTOPIC_MASS>
195.995898282

>  <MOL_FILE>
MOL_FILE

$$$$

  -INDIGO-02112615072D

 31 30  0  0  0  0  0  0  0  0999 V2000
    3.0800   -3.8500    0.0000 Cl  0  0  0  0  0  0  0  0  0  0  0  0
    4.4137   -3.0800    0.0000 Si  0  0  0  0  0  0  0  0  0  0  0  0
    8.9785   -0.2065    0.0000 F   0  0  0  0  0  0  0  0  0  0  0  0
   10.5187   -2.8737    0.0000 F   0  0  0  0  0  0  0  0  0  0  0  0
   10.3124    0.5637    0.0000 F   0  0  0  0  0  0  0  0  0  0  0  0
   11.8524   -2.1037    0.0000 F   0  0  0  0  0  0  0  0  0  0  0  0
    7.6449   -0.9765    0.0000 F   0  0  0  0  0  0  0  0  0  0  0  0
    9.1849   -3.6437    0.0000 F   0  0  0  0  0  0  0  0  0  0  0  0
   11.6461    1.3337    0.0000 F   0  0  0  0  0  0  0  0  0  0  0  0
   13.1861   -1.3337    0.0000 F   0  0  0  0  0  0  0  0  0  0  0  0
   12.9797    2.1037    0.0000 F   0  0  0  0  0  0  0  0  0  0  0  0
   14.5197   -0.5637    0.0000 F   0  0  0  0  0  0  0  0  0  0  0  0
   15.8534    0.2065    0.0000 F   0  0  0  0  0  0  0  0  0  0  0  0
   14.3134    2.8737    0.0000 F   0  0  0  0  0  0  0  0  0  0  0  0
   17.1873    0.9765    0.0000 F   0  0  0  0  0  0  0  0  0  0  0  0
   15.6471    3.6437    0.0000 F   0  0  0  0  0  0  0  0  0  0  0  0
   19.0846    3.8500    0.0000 F   0  0  0  0  0  0  0  0  0  0  0  0
   18.5209    1.7465    0.0000 F   0  0  0  0  0  0  0  0  0  0  0  0
   16.9809    4.4137    0.0000 F   0  0  0  0  0  0  0  0  0  0  0  0
    9.7485   -1.5400    0.0000 C   0  0  0  0  0  0  0  0  0  0  0  0
    8.4149   -2.3100    0.0000 C   0  0  0  0  0  0  0  0  0  0  0  0
   11.0824   -0.7700    0.0000 C   0  0  0  0  0  0  0  0  0  0  0  0
    7.0812   -3.0800    0.0000 C   0  0  0  0  0  0  0  0  0  0  0  0
   12.4161    0.0000    0.0000 C   0  0  0  0  0  0  0  0  0  0  0  0
    5.7475   -2.3100    0.0000 C   0  0  0  0  0  0  0  0  0  0  0  0
   13.7497    0.7700    0.0000 C   0  0  0  0  0  0  0  0  0  0  0  0
   15.0834    1.5400    0.0000 C   0  0  0  0  0  0  0  0  0  0  0  0
   16.4171    2.3100    0.0000 C   0  0  0  0  0  0  0  0  0  0  0  0
    3.6437   -1.7465    0.0000 C   0  0  0  0  0  0  0  0  0  0  0  0
    5.1837   -4.4137    0.0000 C   0  0  0  0  0  0  0  0  0  0  0  0
   17.7509    3.0800    0.0000 C   0  0  0  0  0  0  0  0  0  0  0  0
  1  2  1  0  0  0  0
  2 25  1  0  0  0  0
  2 29  1  0  0  0  0
  2 30  1  0  0  0  0
  3 20  1  0  0  0  0
  4 20  1  0  0  0  0
  5 22  1  0  0  0  0
  6 22  1  0  0  0  0
  7 21  1  0  0  0  0
  8 21  1  0  0  0  0
  9 24  1  0  0  0  0
 10 24  1  0  0  0  0
 11 26  1  0  0  0  0
 12 26  1  0  0  0  0
 13 27  1  0  0  0  0
 14 27  1  0  0  0  0
 15 28  1  0  0  0  0
 16 28  1  0  0  0  0
 17 31  1  0  0  0  0
 18 31  1  0  0  0  0
 19 31  1  0  0  0  0
 20 21  1  0  0  0  0
 20 22  1  0  0  0  0
 21 23  1  0  0  0  0
 22 24  1  0  0  0  0
 23 25  1  0  0  0  0
 24 26  1  0  0  0  0
 26 27  1  0  0  0  0
 27 28  1  0  0  0  0
 28 31  1  0  0  0  0
M  END
>  <INPUT>
DTXSID10225601

>  <FOUND_BY>
DSSTox_Substance_Id

>  <DTXSID>
DTXSID10225601

>  <PREFERRED_NAME>
2-(Perfluorooctyl)ethyldimethylchlorosilane

>  <CASRN>
74612-30-9

>  <INCHIKEY>
JHCJWHBMXWOYDE-UHFFFAOYSA-N

>  <IUPAC_NAME>
Chloro(3,3,4,4,5,5,6,6,7,7,8,8,9,9,10,10,10-heptadecafluorodecyl)dimethylsilane

>  <SMILES>
C[Si](C)(Cl)CCC(F)(F)C(F)(F)C(F)(F)C(F)(F)C(F)(F)C(F)(F)C(F)(F)C(F)(F)F

>  <INCHI_STRING>
InChI=1S/C12H10ClF17Si/c1-31(2,13)4-3-5(14,15)6(16,17)7(18,19)8(20,21)9(22,23)10(24,25)11(26,27)12(28,29)30/h3-4H2,1-2H3

>  <MOLECULAR_FORMULA>
C12H10ClF17Si

>  <AVERAGE_MASS>
540.72

>  <MONOISOTOPIC_MASS>
539.9968833

>  <MOL_FILE>
MOL_FILE

$$$$

  -INDIGO-02112615072D

 30 29  0  0  0  0  0  0  0  0999 V2000
   -1.5921   -0.5010    0.0000 C   0  0  0  0  0  0  0  0  0  0  0  0
   -0.8221   -1.8347    0.0000 C   0  0  0  0  0  0  0  0  0  0  0  0
   -0.2584    0.2690    0.0000 O   0  0  0  0  0  0  0  0  0  0  0  0
   -2.3621    0.8327    0.0000 C   0  0  0  0  0  0  0  0  0  0  0  0
   -2.9258   -1.2710    0.0000 F   0  0  0  0  0  0  0  0  0  0  0  0
   -0.0521   -3.1684    0.0000 O   0  0  0  0  0  0  0  0  0  0  0  0
    0.5116   -1.0647    0.0000 F   0  0  0  0  0  0  0  0  0  0  0  0
   -2.1558   -2.6047    0.0000 F   0  0  0  0  0  0  0  0  0  0  0  0
   -0.2584    1.8090    0.0000 C   0  0  0  0  0  0  0  0  0  0  0  0
   -3.1321    2.1663    0.0000 F   0  0  0  0  0  0  0  0  0  0  0  0
   -3.6958    0.0627    0.0000 F   0  0  0  0  0  0  0  0  0  0  0  0
   -1.0284    1.6027    0.0000 F   0  0  0  0  0  0  0  0  0  0  0  0
    1.4879   -3.1684    0.0000 C   0  0  0  0  0  0  0  0  0  0  0  0
   -0.2584    3.3490    0.0000 C   0  0  0  0  0  0  0  0  0  0  0  0
    1.2816    1.8090    0.0000 F   0  0  0  0  0  0  0  0  0  0  0  0
   -1.7230    2.2849    0.0000 F   0  0  0  0  0  0  0  0  0  0  0  0
    1.4879   -4.7084    0.0000 C   0  0  0  0  0  0  0  0  0  0  0  0
    3.0279   -3.1684    0.0000 C   0  0  0  0  0  0  0  0  0  0  0  0
    1.4879   -1.6284    0.0000 F   0  0  0  0  0  0  0  0  0  0  0  0
   -0.2584    4.8890    0.0000 C   0  0  0  0  0  0  0  0  0  0  0  0
    1.2816    3.3490    0.0000 F   0  0  0  0  0  0  0  0  0  0  0  0
   -1.7984    3.3490    0.0000 F   0  0  0  0  0  0  0  0  0  0  0  0
    1.4879   -6.2484    0.0000 F   0  0  0  0  0  0  0  0  0  0  0  0
    3.0279   -4.7084    0.0000 F   0  0  0  0  0  0  0  0  0  0  0  0
   -0.0521   -4.7084    0.0000 F   0  0  0  0  0  0  0  0  0  0  0  0
    3.7979   -1.8347    0.0000 O   0  0  0  0  0  0  0  0  0  0  0  0
    3.7979   -4.5020    0.0000 O   0  0  0  0  0  0  0  0  0  0  0  0
   -0.2584    6.4290    0.0000 F   0  0  0  0  0  0  0  0  0  0  0  0
    1.2816    4.8890    0.0000 F   0  0  0  0  0  0  0  0  0  0  0  0
   -1.7984    4.8890    0.0000 F   0  0  0  0  0  0  0  0  0  0  0  0
  1  2  1  0  0  0  0
  1  3  1  0  0  0  0
  1  4  1  0  0  0  0
  1  5  1  0  0  0  0
  2  6  1  0  0  0  0
  2  7  1  0  0  0  0
  2  8  1  0  0  0  0
  3  9  1  0  0  0  0
  4 10  1  0  0  0  0
  4 11  1  0  0  0  0
  4 12  1  0  0  0  0
  6 13  1  0  0  0  0
  9 14  1  0  0  0  0
  9 15  1  0  0  0  0
  9 16  1  0  0  0  0
 13 17  1  0  0  0  0
 13 18  1  0  0  0  0
 13 19  1  0  0  0  0
 14 20  1  0  0  0  0
 14 21  1  0  0  0  0
 14 22  1  0  0  0  0
 17 23  1  0  0  0  0
 17 24  1  0  0  0  0
 17 25  1  0  0  0  0
 18 26  1  0  0  0  0
 18 27  2  0  0  0  0
 20 28  1  0  0  0  0
 20 29  1  0  0  0  0
 20 30  1  0  0  0  0
M  END
>  <INPUT>
DTXSID00892442

>  <FOUND_BY>
DSSTox_Substance_Id

>  <DTXSID>
DTXSID00892442

>  <PREFERRED_NAME>
Perfluoro-2,5-dimethyl-3,6-dioxanonanoic acid

>  <CASRN>
13252-14-7

>  <INCHIKEY>
OIVQVBDAMYDDEM-UHFFFAOYNA-N

>  <IUPAC_NAME>
2,3,3,3-Tetrafluoro-2-[1,1,2,3,3,3-hexafluoro-2-(heptafluoropropoxy)propoxy]propanoic acid

>  <SMILES>
OC(=O)C(F)(OC(F)(F)C(F)(OC(F)(F)C(F)(F)C(F)(F)F)C(F)(F)F)C(F)(F)F

>  <INCHI_STRING>
InChI=1S/C9HF17O4/c10-2(1(27)28,5(14,15)16)29-9(25,26)4(13,7(20,21)22)30-8(23,24)3(11,12)6(17,18)19/h(H,27,28)

>  <MOLECULAR_FORMULA>
C9HF17O4

>  <AVERAGE_MASS>
496.076

>  <MONOISOTOPIC_MASS>
495.960337283

>  <MOL_FILE>
MOL_FILE

$$$$

  -INDIGO-02112615072D

 30 29  0  0  0  0  0  0  0  0999 V2000
    5.7750   -4.2350    0.0000 C   0  0  0  0  0  0  0  0  0  0  0  0
    4.2350   -4.2350    0.0000 C   0  0  0  0  0  0  0  0  0  0  0  0
    2.6950   -4.2350    0.0000 C   0  0  0  0  0  0  0  0  0  0  0  0
    1.1550   -4.2350    0.0000 C   0  0  0  0  0  0  0  0  0  0  0  0
   -0.3850   -4.2350    0.0000 C   0  0  0  0  0  0  0  0  0  0  0  0
   -1.9250   -4.2350    0.0000 C   0  0  0  0  0  0  0  0  0  0  0  0
   -3.4650   -4.2350    0.0000 C   0  0  0  0  0  0  0  0  0  0  0  0
   -5.0050   -4.2350    0.0000 C   0  0  0  0  0  0  0  0  0  0  0  0
   -6.5450   -4.2350    0.0000 F   0  0  0  0  0  0  0  0  0  0  0  0
   -5.0050   -5.7750    0.0000 F   0  0  0  0  0  0  0  0  0  0  0  0
   -5.0050   -2.6950    0.0000 F   0  0  0  0  0  0  0  0  0  0  0  0
   -3.4650   -5.7750    0.0000 F   0  0  0  0  0  0  0  0  0  0  0  0
   -3.4650   -2.6950    0.0000 F   0  0  0  0  0  0  0  0  0  0  0  0
   -1.9250   -5.7750    0.0000 F   0  0  0  0  0  0  0  0  0  0  0  0
   -1.9250   -2.6950    0.0000 F   0  0  0  0  0  0  0  0  0  0  0  0
   -0.3850   -5.7750    0.0000 F   0  0  0  0  0  0  0  0  0  0  0  0
   -0.3850   -2.6950    0.0000 F   0  0  0  0  0  0  0  0  0  0  0  0
    1.1550   -5.7750    0.0000 F   0  0  0  0  0  0  0  0  0  0  0  0
    1.1550   -2.6950    0.0000 F   0  0  0  0  0  0  0  0  0  0  0  0
    2.6950   -5.7750    0.0000 F   0  0  0  0  0  0  0  0  0  0  0  0
    2.6950   -2.6950    0.0000 F   0  0  0  0  0  0  0  0  0  0  0  0
    4.2350   -5.7750    0.0000 F   0  0  0  0  0  0  0  0  0  0  0  0
    4.2350   -2.6950    0.0000 F   0  0  0  0  0  0  0  0  0  0  0  0
    7.3150   -4.2350    0.0000 S   0  0  0  0  0  0  0  0  0  0  0  0
    7.3150   -5.7750    0.0000 O   0  0  0  0  0  0  0  0  0  0  0  0
    7.3150   -2.6950    0.0000 O   0  0  0  0  0  0  0  0  0  0  0  0
    8.8550   -4.2350    0.0000 N   0  0  0  0  0  0  0  0  0  0  0  0
    9.6250   -2.9013    0.0000 C   0  0  0  0  0  0  0  0  0  0  0  0
    5.7750   -5.7750    0.0000 F   0  0  0  0  0  0  0  0  0  0  0  0
    5.7750   -2.6950    0.0000 F   0  0  0  0  0  0  0  0  0  0  0  0
  1  2  1  0  0  0  0
  2  3  1  0  0  0  0
  3  4  1  0  0  0  0
  4  5  1  0  0  0  0
  5  6  1  0  0  0  0
  6  7  1  0  0  0  0
  7  8  1  0  0  0  0
  8  9  1  0  0  0  0
  8 10  1  0  0  0  0
  8 11  1  0  0  0  0
  7 12  1  0  0  0  0
  7 13  1  0  0  0  0
  6 14  1  0  0  0  0
  6 15  1  0  0  0  0
  5 16  1  0  0  0  0
  5 17  1  0  0  0  0
  4 18  1  0  0  0  0
  4 19  1  0  0  0  0
  3 20  1  0  0  0  0
  3 21  1  0  0  0  0
  2 22  1  0  0  0  0
  2 23  1  0  0  0  0
  1 24  1  0  0  0  0
 24 25  2  0  0  0  0
 24 26  2  0  0  0  0
 24 27  1  0  0  0  0
 27 28  1  0  0  0  0
  1 29  1  0  0  0  0
  1 30  1  0  0  0  0
M  END
>  <INPUT>
DTXSID1067629

>  <FOUND_BY>
DSSTox_Substance_Id

>  <DTXSID>
DTXSID1067629

>  <PREFERRED_NAME>
N-Methylperfluorooctanesulfonamide

>  <CASRN>
31506-32-8

>  <INCHIKEY>
SRMWNTGHXHOWBT-UHFFFAOYSA-N

>  <IUPAC_NAME>
1,1,2,2,3,3,4,4,5,5,6,6,7,7,8,8,8-Heptadecafluoro-N-methyloctane-1-sulfonamide

>  <SMILES>
CNS(=O)(=O)C(F)(F)C(F)(F)C(F)(F)C(F)(F)C(F)(F)C(F)(F)C(F)(F)C(F)(F)F

>  <INCHI_STRING>
InChI=1S/C9H4F17NO2S/c1-27-30(28,29)9(25,26)7(20,21)5(16,17)3(12,13)2(10,11)4(14,15)6(18,19)8(22,23)24/h27H,1H3


>  <MOLECULAR_FORMULA>
C9H4F17NO2S

>  <AVERAGE_MASS>
513.17

>  <MONOISOTOPIC_MASS>
512.969128318

>  <MOL_FILE>
MOL_FILE

$$$$

  -INDIGO-02112615072D

 31 30  0  0  0  0  0  0  0  0999 V2000
    5.2407   -3.0800    0.0000 S   0  0  0  0  0  0  0  0  0  0  0  0
   11.1391    0.5637    0.0000 F   0  0  0  0  0  0  0  0  0  0  0  0
   12.6793   -2.1037    0.0000 F   0  0  0  0  0  0  0  0  0  0  0  0
   12.4729    1.3337    0.0000 F   0  0  0  0  0  0  0  0  0  0  0  0
   14.0129   -1.3337    0.0000 F   0  0  0  0  0  0  0  0  0  0  0  0
    9.8056   -0.2065    0.0000 F   0  0  0  0  0  0  0  0  0  0  0  0
   11.3456   -2.8737    0.0000 F   0  0  0  0  0  0  0  0  0  0  0  0
   13.8066    2.1037    0.0000 F   0  0  0  0  0  0  0  0  0  0  0  0
   15.3466   -0.5637    0.0000 F   0  0  0  0  0  0  0  0  0  0  0  0
    8.4717   -0.9765    0.0000 F   0  0  0  0  0  0  0  0  0  0  0  0
   10.0117   -3.6437    0.0000 F   0  0  0  0  0  0  0  0  0  0  0  0
   16.6803    0.2065    0.0000 F   0  0  0  0  0  0  0  0  0  0  0  0
   15.1403    2.8737    0.0000 F   0  0  0  0  0  0  0  0  0  0  0  0
   18.0141    0.9765    0.0000 F   0  0  0  0  0  0  0  0  0  0  0  0
   16.4741    3.6437    0.0000 F   0  0  0  0  0  0  0  0  0  0  0  0
   19.9114    3.8500    0.0000 F   0  0  0  0  0  0  0  0  0  0  0  0
   19.3478    1.7465    0.0000 F   0  0  0  0  0  0  0  0  0  0  0  0
   17.8076    4.4137    0.0000 F   0  0  0  0  0  0  0  0  0  0  0  0
    3.9069   -3.8500    0.0000 O   0  0  0  0  0  0  0  0  0  0  0  0
    4.4707   -1.7465    0.0000 O   0  0  0  0  0  0  0  0  0  0  0  0
    6.0107   -4.4137    0.0000 O   0  0  0  0  0  0  0  0  0  0  0  0
   11.9091   -0.7700    0.0000 C   0  0  0  0  0  0  0  0  0  0  0  0
   13.2429    0.0000    0.0000 C   0  0  0  0  0  0  0  0  0  0  0  0
   10.5756   -1.5400    0.0000 C   0  0  0  0  0  0  0  0  0  0  0  0
   14.5766    0.7700    0.0000 C   0  0  0  0  0  0  0  0  0  0  0  0
    9.2417   -2.3100    0.0000 C   0  0  0  0  0  0  0  0  0  0  0  0
   15.9103    1.5400    0.0000 C   0  0  0  0  0  0  0  0  0  0  0  0
    7.9081   -3.0800    0.0000 C   0  0  0  0  0  0  0  0  0  0  0  0
   17.2441    2.3100    0.0000 C   0  0  0  0  0  0  0  0  0  0  0  0
    6.5744   -2.3100    0.0000 C   0  0  0  0  0  0  0  0  0  0  0  0
   18.5778    3.0800    0.0000 C   0  0  0  0  0  0  0  0  0  0  0  0
  1 19  1  0  0  0  0
  1 20  2  0  0  0  0
  1 21  2  0  0  0  0
  1 30  1  0  0  0  0
  2 22  1  0  0  0  0
  3 22  1  0  0  0  0
  4 23  1  0  0  0  0
  5 23  1  0  0  0  0
  6 24  1  0  0  0  0
  7 24  1  0  0  0  0
  8 25  1  0  0  0  0
  9 25  1  0  0  0  0
 10 26  1  0  0  0  0
 11 26  1  0  0  0  0
 12 27  1  0  0  0  0
 13 27  1  0  0  0  0
 14 29  1  0  0  0  0
 15 29  1  0  0  0  0
 16 31  1  0  0  0  0
 17 31  1  0  0  0  0
 18 31  1  0  0  0  0
 22 23  1  0  0  0  0
 22 24  1  0  0  0  0
 23 25  1  0  0  0  0
 24 26  1  0  0  0  0
 25 27  1  0  0  0  0
 26 28  1  0  0  0  0
 27 29  1  0  0  0  0
 28 30  1  0  0  0  0
 29 31  1  0  0  0  0
M  END
>  <INPUT>
DTXSID00192353

>  <FOUND_BY>
DSSTox_Substance_Id

>  <DTXSID>
DTXSID00192353

>  <PREFERRED_NAME>
8:2 Fluorotelomer sulfonic acid

>  <CASRN>
39108-34-4

>  <INCHIKEY>
ALVYVCQIFHTIRD-UHFFFAOYSA-N

>  <IUPAC_NAME>
3,3,4,4,5,5,6,6,7,7,8,8,9,9,10,10,10-Heptadecafluorodecane-1-sulfonic acid

>  <SMILES>
OS(=O)(=O)CCC(F)(F)C(F)(F)C(F)(F)C(F)(F)C(F)(F)C(F)(F)C(F)(F)C(F)(F)F

>  <INCHI_STRING>
InChI=1S/C10H5F17O3S/c11-3(12,1-2-31(28,29)30)4(13,14)5(15,16)6(17,18)7(19,20)8(21,22)9(23,24)10(25,26)27/h1-2H2,(H,28,29,30)


>  <MOLECULAR_FORMULA>
C10H5F17O3S

>  <AVERAGE_MASS>
528.18

>  <MONOISOTOPIC_MASS>
527.968793966

>  <MOL_FILE>
MOL_FILE

$$$$

  -INDIGO-02112615072D

 18 17  0  0  0  0  0  0  0  0999 V2000
    8.9785    1.4368    0.0000 F   0  0  0  0  0  0  0  0  0  0  0  0
   10.5187   -1.2305    0.0000 F   0  0  0  0  0  0  0  0  0  0  0  0
   10.3124    2.2070    0.0000 F   0  0  0  0  0  0  0  0  0  0  0  0
   11.8524   -0.4605    0.0000 F   0  0  0  0  0  0  0  0  0  0  0  0
    7.6449    0.6668    0.0000 F   0  0  0  0  0  0  0  0  0  0  0  0
    9.1849   -2.0005    0.0000 F   0  0  0  0  0  0  0  0  0  0  0  0
   13.7497    2.4132    0.0000 F   0  0  0  0  0  0  0  0  0  0  0  0
   13.1861    0.3095    0.0000 F   0  0  0  0  0  0  0  0  0  0  0  0
   11.6461    2.9770    0.0000 F   0  0  0  0  0  0  0  0  0  0  0  0
    5.7475   -0.6668    0.0000 O   0  0  0  0  0  0  0  0  0  0  0  0
    7.0812   -2.9770    0.0000 O   0  0  0  0  0  0  0  0  0  0  0  0
    9.7485    0.1032    0.0000 C   0  0  0  0  0  0  0  0  0  0  0  0
   11.0824    0.8732    0.0000 C   0  0  0  0  0  0  0  0  0  0  0  0
    8.4149   -0.6668    0.0000 C   0  0  0  0  0  0  0  0  0  0  0  0
   12.4161    1.6432    0.0000 C   0  0  0  0  0  0  0  0  0  0  0  0
    7.0812   -1.4368    0.0000 C   0  0  0  0  0  0  0  0  0  0  0  0
    4.4137   -1.4368    0.0000 C   0  0  0  0  0  0  0  0  0  0  0  0
    3.0800   -0.6668    0.0000 C   0  0  0  0  0  0  0  0  0  0  0  0
  1 12  1  0  0  0  0
  2 12  1  0  0  0  0
  3 13  1  0  0  0  0
  4 13  1  0  0  0  0
  5 14  1  0  0  0  0
  6 14  1  0  0  0  0
  7 15  1  0  0  0  0
  8 15  1  0  0  0  0
  9 15  1  0  0  0  0
 10 16  1  0  0  0  0
 10 17  1  0  0  0  0
 11 16  2  0  0  0  0
 12 13  1  0  0  0  0
 12 14  1  0  0  0  0
 13 15  1  0  0  0  0
 14 16  1  0  0  0  0
 17 18  1  0  0  0  0
M  END
>  <INPUT>
DTXSID50335697

>  <FOUND_BY>
DSSTox_Substance_Id

>  <DTXSID>
DTXSID50335697

>  <PREFERRED_NAME>
Ethyl perfluoropentanoate

>  <CASRN>
424-36-2

>  <INCHIKEY>
JBEYNXOZKKQLOH-UHFFFAOYSA-N

>  <IUPAC_NAME>
Ethyl nonafluoropentanoate

>  <SMILES>
CCOC(=O)C(F)(F)C(F)(F)C(F)(F)C(F)(F)F

>  <INCHI_STRING>
InChI=1S/C7H5F9O2/c1-2-18-3(17)4(8,9)5(10,11)6(12,13)7(14,15)16/h2H2,1H3

>  <MOLECULAR_FORMULA>
C7H5F9O2

>  <AVERAGE_MASS>
292.101

>  <MONOISOTOPIC_MASS>
292.014582868

>  <MOL_FILE>
MOL_FILE

$$$$

  -INDIGO-02112615072D

 29 30  0  0  0  0  0  0  0  0999 V2000
   13.2903   -6.9044    0.0000 Cl  0  0  0  0  0  0  0  0  0  0  0  0
   11.9569   -6.1339    0.0000 C   0  0  0  0  0  0  0  0  0  0  0  0
   10.6233   -6.9044    0.0000 C   0  0  0  0  0  0  0  0  0  0  0  0
    9.2898   -6.1339    0.0000 C   0  0  0  0  0  0  0  0  0  0  0  0
    9.2898   -4.6079    0.0000 C   0  0  0  0  0  0  0  0  0  0  0  0
   10.6233   -3.8374    0.0000 C   0  0  0  0  0  0  0  0  0  0  0  0
   11.9569   -4.6079    0.0000 C   0  0  0  0  0  0  0  0  0  0  0  0
   13.2903   -3.8374    0.0000 O   0  0  0  0  0  0  0  0  0  0  0  0
   13.2903   -2.3113    0.0000 C   0  0  0  0  0  0  0  0  0  0  0  0
   14.8163   -2.3113    0.0000 F   0  0  0  0  0  0  0  0  0  0  0  0
   11.7494   -2.3113    0.0000 F   0  0  0  0  0  0  0  0  0  0  0  0
   13.2903   -0.7705    0.0000 C   0  0  0  0  0  0  0  0  0  0  0  0
   14.6089    0.0000    0.0000 F   0  0  0  0  0  0  0  0  0  0  0  0
   11.9569    0.0000    0.0000 F   0  0  0  0  0  0  0  0  0  0  0  0
   10.6233   -2.3113    0.0000 Cl  0  0  0  0  0  0  0  0  0  0  0  0
    7.9564   -6.9044    0.0000 N   0  0  0  0  0  0  0  0  0  0  0  0
    6.6378   -6.1339    0.0000 C   0  0  0  0  0  0  0  0  0  0  0  0
    6.6378   -4.6079    0.0000 O   0  0  0  0  0  0  0  0  0  0  0  0
    5.3042   -6.8897    0.0000 N   0  0  0  0  0  0  0  0  0  0  0  0
    3.9708   -6.1339    0.0000 C   0  0  0  0  0  0  0  0  0  0  0  0
    3.9708   -4.6079    0.0000 O   0  0  0  0  0  0  0  0  0  0  0  0
    2.6373   -6.8897    0.0000 C   0  0  0  0  0  0  0  0  0  0  0  0
    2.6373   -8.4305    0.0000 C   0  0  0  0  0  0  0  0  0  0  0  0
    1.3335   -9.2010    0.0000 C   0  0  0  0  0  0  0  0  0  0  0  0
    0.0000   -8.4305    0.0000 C   0  0  0  0  0  0  0  0  0  0  0  0
    0.0000   -6.8897    0.0000 C   0  0  0  0  0  0  0  0  0  0  0  0
    1.3335   -6.1339    0.0000 C   0  0  0  0  0  0  0  0  0  0  0  0
    1.3335   -4.6079    0.0000 F   0  0  0  0  0  0  0  0  0  0  0  0
    3.9708   -9.2010    0.0000 F   0  0  0  0  0  0  0  0  0  0  0  0
  1  2  1  0  0  0  0
  2  3  1  0  0  0  0
  2  7  2  0  0  0  0
  3  4  2  0  0  0  0
  4  5  1  0  0  0  0
  4 16  1  0  0  0  0
  5  6  2  0  0  0  0
  6  7  1  0  0  0  0
  6 15  1  0  0  0  0
  7  8  1  0  0  0  0
  8  9  1  0  0  0  0
  9 10  1  0  0  0  0
  9 11  1  0  0  0  0
  9 12  1  0  0  0  0
 12 13  1  0  0  0  0
 12 14  1  0  0  0  0
 16 17  1  0  0  0  0
 17 18  2  0  0  0  0
 17 19  1  0  0  0  0
 19 20  1  0  0  0  0
 20 21  2  0  0  0  0
 20 22  1  0  0  0  0
 22 23  1  0  0  0  0
 22 27  2  0  0  0  0
 23 24  2  0  0  0  0
 23 29  1  0  0  0  0
 24 25  1  0  0  0  0
 25 26  2  0  0  0  0
 26 27  1  0  0  0  0
 27 28  1  0  0  0  0
M  END
>  <INPUT>
DTXSID3032620

>  <FOUND_BY>
DSSTox_Substance_Id

>  <DTXSID>
DTXSID3032620

>  <PREFERRED_NAME>
Hexaflumuron

>  <CASRN>
86479-06-3

>  <INCHIKEY>
RGNPBRKPHBKNKX-UHFFFAOYSA-N

>  <IUPAC_NAME>
N-{[3,5-Dichloro-4-(1,1,2,2-tetrafluoroethoxy)phenyl]carbamoyl}-2,6-difluorobenzamide

>  <SMILES>
FC(F)C(F)(F)OC1=C(Cl)C=C(NC(=O)NC(=O)C2=C(F)C=CC=C2F)C=C1Cl

>  <INCHI_STRING>
InChI=1S/C16H8Cl2F6N2O3/c17-7-4-6(5-8(18)12(7)29-16(23,24)14(21)22)25-15(28)26-13(27)11-9(19)2-1-3-10(11)20/h1-5,14H,(H2,25,26,27,28)

>  <MOLECULAR_FORMULA>
C16H8Cl2F6N2O3

>  <AVERAGE_MASS>
461.14

>  <MONOISOTOPIC_MASS>
459.9816165

>  <MOL_FILE>
MOL_FILE

$$$$

  -INDIGO-02112615072D

 12 11  0  0  0  0  0  0  0  0999 V2000
    7.9081    2.3100    0.0000 F   0  0  0  0  0  0  0  0  0  0  0  0
    5.8044    1.3337    0.0000 F   0  0  0  0  0  0  0  0  0  0  0  0
    7.3444   -1.3337    0.0000 F   0  0  0  0  0  0  0  0  0  0  0  0
   10.5756   -0.7700    0.0000 F   0  0  0  0  0  0  0  0  0  0  0  0
   10.0117    1.3337    0.0000 F   0  0  0  0  0  0  0  0  0  0  0  0
    8.4717   -1.3337    0.0000 F   0  0  0  0  0  0  0  0  0  0  0  0
    3.9069    0.0000    0.0000 O   0  0  0  0  0  0  0  0  0  0  0  0
    5.2407   -2.3100    0.0000 O   0  0  0  0  0  0  0  0  0  0  0  0
    7.9081    0.7700    0.0000 C   0  0  0  0  0  0  0  0  0  0  0  0
    6.5744    0.0000    0.0000 C   0  0  0  0  0  0  0  0  0  0  0  0
    9.2417    0.0000    0.0000 C   0  0  0  0  0  0  0  0  0  0  0  0
    5.2407   -0.7700    0.0000 C   0  0  0  0  0  0  0  0  0  0  0  0
  1  9  1  0  0  0  0
  2 10  1  0  0  0  0
  3 10  1  0  0  0  0
  4 11  1  0  0  0  0
  5 11  1  0  0  0  0
  6 11  1  0  0  0  0
  7 12  1  0  0  0  0
  8 12  2  0  0  0  0
  9 10  1  0  0  0  0
  9 11  1  0  0  0  0
 10 12  1  0  0  0  0
M  END
>  <INPUT>
DTXSID90626970

>  <FOUND_BY>
DSSTox_Substance_Id

>  <DTXSID>
DTXSID90626970

>  <PREFERRED_NAME>
3H-Perfluorobutanoic acid

>  <CASRN>
379-90-8

>  <INCHIKEY>
AZLUIEGTKBIKSG-UHFFFAOYNA-N

>  <IUPAC_NAME>
2,2,3,4,4,4-Hexafluorobutanoic acid

>  <SMILES>
OC(=O)C(F)(F)C(F)C(F)(F)F

>  <INCHI_STRING>
InChI=1S/C4H2F6O2/c5-1(4(8,9)10)3(6,7)2(11)12/h1H,(H,11,12)

>  <MOLECULAR_FORMULA>
C4H2F6O2

>  <AVERAGE_MASS>
196.048

>  <MONOISOTOPIC_MASS>
195.995898282

>  <MOL_FILE>
MOL_FILE

$$$$

  -INDIGO-02112615072D

 18 17  0  0  0  0  0  0  0  0999 V2000
   -3.4406    1.0471    0.0000 C   0  0  0  0  0  0  0  0  0  0  0  0
   -2.2615    0.0565    0.0000 C   0  0  0  0  0  0  0  0  0  0  0  0
   -0.8068    0.5746    0.0000 C   0  0  0  0  0  0  0  0  0  0  0  0
    0.3725   -0.4158    0.0000 C   0  0  0  0  0  0  0  0  0  0  0  0
    3.2833    1.2627    0.0000 C   0  0  0  0  0  0  0  0  0  0  0  0
   -2.4447    2.2353    0.0000 F   0  0  0  0  0  0  0  0  0  0  0  0
   -4.4453   -0.1360    0.0000 F   0  0  0  0  0  0  0  0  0  0  0  0
   -4.6237    2.0518    0.0000 F   0  0  0  0  0  0  0  0  0  0  0  0
   -2.5382   -1.4752    0.0000 F   0  0  0  0  0  0  0  0  0  0  0  0
   -0.5404    2.0884    0.0000 F   0  0  0  0  0  0  0  0  0  0  0  0
   -0.6322   -1.5989    0.0000 F   0  0  0  0  0  0  0  0  0  0  0  0
    2.5087    2.6034    0.0000 F   0  0  0  0  0  0  0  0  0  0  0  0
    4.0578   -0.0781    0.0000 F   0  0  0  0  0  0  0  0  0  0  0  0
    4.6237    2.0374    0.0000 F   0  0  0  0  0  0  0  0  0  0  0  0
    1.5465   -1.4153    0.0000 C   0  0  0  0  0  0  0  0  0  0  0  0
    2.5459   -0.2414    0.0000 F   0  0  0  0  0  0  0  0  0  0  0  0
    0.5507   -2.6034    0.0000 F   0  0  0  0  0  0  0  0  0  0  0  0
    2.7296   -2.4200    0.0000 F   0  0  0  0  0  0  0  0  0  0  0  0
  2  1  1  0  0  0  0
  6  1  1  0  0  0  0
  7  1  1  0  0  0  0
  8  1  1  0  0  0  0
  3  2  2  0  0  0  0
  9  2  1  0  0  0  0
  4  3  1  0  0  0  0
 10  3  1  0  0  0  0
  5  4  1  0  0  0  0
 11  4  1  0  0  0  0
 15  4  1  0  0  0  0
 12  5  1  0  0  0  0
 13  5  1  0  0  0  0
 14  5  1  0  0  0  0
 16 15  1  0  0  0  0
 17 15  1  0  0  0  0
 18 15  1  0  0  0  0
M  END
>  <INPUT>
DTXSID70880159

>  <FOUND_BY>
DSSTox_Substance_Id

>  <DTXSID>
DTXSID70880159

>  <PREFERRED_NAME>
(E)-Perfluoro(4-methyl-2-pentene)

>  <CASRN>
3709-71-5

>  <INCHIKEY>
SAPOZTRFWJZUFT-OWOJBTEDSA-N

>  <IUPAC_NAME>
(2E)-1,1,1,2,3,4,5,5,5-Nonafluoro-4-(trifluoromethyl)pent-2-ene

>  <SMILES>
F\C(=C(\F)C(F)(C(F)(F)F)C(F)(F)F)C(F)(F)F

>  <INCHI_STRING>
InChI=1S/C6F12/c7-1(2(8)4(10,11)12)3(9,5(13,14)15)6(16,17)18/b2-1+

>  <MOLECULAR_FORMULA>
C6F12

>  <AVERAGE_MASS>
300.047

>  <MONOISOTOPIC_MASS>
299.980837956

>  <MOL_FILE>
MOL_FILE

$$$$

  -INDIGO-02112615072D

 14 13  0  0  0  0  0  0  0  0999 V2000
    2.8737   -5.3900    0.0000 O   0  0  0  0  0  0  0  0  0  0  0  0
    1.5400   -4.6200    0.0000 C   0  0  0  0  0  0  0  0  0  0  0  0
    0.2063   -5.3900    0.0000 O   0  0  0  0  0  0  0  0  0  0  0  0
    0.2063   -6.9300    0.0000 C   0  0  0  0  0  0  0  0  0  0  0  0
    1.5400   -3.0800    0.0000 C   0  0  0  0  0  0  0  0  0  0  0  0
    3.0800   -3.0800    0.0000 F   0  0  0  0  0  0  0  0  0  0  0  0
    0.0000   -3.0800    0.0000 F   0  0  0  0  0  0  0  0  0  0  0  0
    1.5400   -1.5400    0.0000 C   0  0  0  0  0  0  0  0  0  0  0  0
    3.0800   -1.5400    0.0000 F   0  0  0  0  0  0  0  0  0  0  0  0
    0.0000   -1.5400    0.0000 F   0  0  0  0  0  0  0  0  0  0  0  0
    1.5400    0.0000    0.0000 C   0  0  0  0  0  0  0  0  0  0  0  0
    1.5400    1.5400    0.0000 F   0  0  0  0  0  0  0  0  0  0  0  0
    3.0800    0.0000    0.0000 F   0  0  0  0  0  0  0  0  0  0  0  0
    0.0000    0.0000    0.0000 F   0  0  0  0  0  0  0  0  0  0  0  0
  1  2  2  0  0  0  0
  2  3  1  0  0  0  0
  3  4  1  0  0  0  0
  2  5  1  0  0  0  0
  5  6  1  0  0  0  0
  5  7  1  0  0  0  0
  5  8  1  0  0  0  0
  8  9  1  0  0  0  0
  8 10  1  0  0  0  0
  8 11  1  0  0  0  0
 11 12  1  0  0  0  0
 11 13  1  0  0  0  0
 11 14  1  0  0  0  0
M  END
>  <INPUT>
DTXSID4059881

>  <FOUND_BY>
DSSTox_Substance_Id

>  <DTXSID>
DTXSID4059881

>  <PREFERRED_NAME>
Methyl perfluorobutanoate

>  <CASRN>
356-24-1

>  <INCHIKEY>
MRPUVAKBXDBGJQ-UHFFFAOYSA-N

>  <IUPAC_NAME>
Methyl heptafluorobutanoate

>  <SMILES>
COC(=O)C(F)(F)C(F)(F)C(F)(F)F

>  <INCHI_STRING>
InChI=1S/C5H3F7O2/c1-14-2(13)3(6,7)4(8,9)5(10,11)12/h1H3

>  <MOLECULAR_FORMULA>
C5H3F7O2

>  <AVERAGE_MASS>
228.066

>  <MONOISOTOPIC_MASS>
228.002126478

>  <MOL_FILE>
MOL_FILE

$$$$

  -INDIGO-02112615072D

 29 28  0  0  0  0  0  0  0  0999 V2000
   15.4000   -1.5400    0.0000 F   0  0  0  0  0  0  0  0  0  0  0  0
   12.3200   -1.5400    0.0000 C   0  0  0  0  0  0  0  0  0  0  0  0
   10.7800   -1.5400    0.0000 C   0  0  0  0  0  0  0  0  0  0  0  0
    9.2400   -1.5400    0.0000 C   0  0  0  0  0  0  0  0  0  0  0  0
    7.7000   -1.5400    0.0000 C   0  0  0  0  0  0  0  0  0  0  0  0
    6.1600   -1.5400    0.0000 C   0  0  0  0  0  0  0  0  0  0  0  0
    4.6200   -1.5400    0.0000 C   0  0  0  0  0  0  0  0  0  0  0  0
    3.0800   -1.5400    0.0000 C   0  0  0  0  0  0  0  0  0  0  0  0
    1.5400   -1.5400    0.0000 C   0  0  0  0  0  0  0  0  0  0  0  0
   13.8600   -1.5400    0.0000 S   0  0  0  0  0  0  0  0  0  0  0  0
   13.8600   -3.0800    0.0000 O   0  0  0  0  0  0  0  0  0  0  0  0
   13.8600    0.0000    0.0000 O   0  0  0  0  0  0  0  0  0  0  0  0
   12.3200   -3.0800    0.0000 F   0  0  0  0  0  0  0  0  0  0  0  0
   12.3200    0.0000    0.0000 F   0  0  0  0  0  0  0  0  0  0  0  0
   10.7800    0.0000    0.0000 F   0  0  0  0  0  0  0  0  0  0  0  0
   10.7800   -3.0800    0.0000 F   0  0  0  0  0  0  0  0  0  0  0  0
    9.2400   -3.0800    0.0000 F   0  0  0  0  0  0  0  0  0  0  0  0
    9.2400    0.0000    0.0000 F   0  0  0  0  0  0  0  0  0  0  0  0
    7.7000    0.0000    0.0000 F   0  0  0  0  0  0  0  0  0  0  0  0
    7.7000   -3.0800    0.0000 F   0  0  0  0  0  0  0  0  0  0  0  0
    6.1600   -3.0800    0.0000 F   0  0  0  0  0  0  0  0  0  0  0  0
    6.1600    0.0000    0.0000 F   0  0  0  0  0  0  0  0  0  0  0  0
    4.6200    0.0000    0.0000 F   0  0  0  0  0  0  0  0  0  0  0  0
    4.6200   -3.0800    0.0000 F   0  0  0  0  0  0  0  0  0  0  0  0
    3.0800   -3.0800    0.0000 F   0  0  0  0  0  0  0  0  0  0  0  0
    3.0800    0.0000    0.0000 F   0  0  0  0  0  0  0  0  0  0  0  0
    0.0000   -1.5400    0.0000 F   0  0  0  0  0  0  0  0  0  0  0  0
    1.5400   -3.0800    0.0000 F   0  0  0  0  0  0  0  0  0  0  0  0
    1.5400    0.0000    0.0000 F   0  0  0  0  0  0  0  0  0  0  0  0
  1 10  1  0  0  0  0
  2  3  1  0  0  0  0
  2 10  1  0  0  0  0
  2 13  1  0  0  0  0
  2 14  1  0  0  0  0
  3  4  1  0  0  0  0
  3 15  1  0  0  0  0
  3 16  1  0  0  0  0
  4  5  1  0  0  0  0
  4 17  1  0  0  0  0
  4 18  1  0  0  0  0
  5  6  1  0  0  0  0
  5 19  1  0  0  0  0
  5 20  1  0  0  0  0
  6  7  1  0  0  0  0
  6 21  1  0  0  0  0
  6 22  1  0  0  0  0
  7  8  1  0  0  0  0
  7 23  1  0  0  0  0
  7 24  1  0  0  0  0
  8  9  1  0  0  0  0
  8 25  1  0  0  0  0
  8 26  1  0  0  0  0
  9 27  1  0  0  0  0
  9 28  1  0  0  0  0
  9 29  1  0  0  0  0
 10 11  2  0  0  0  0
 10 12  2  0  0  0  0
M  END
>  <INPUT>
DTXSID5027140

>  <FOUND_BY>
DSSTox_Substance_Id

>  <DTXSID>
DTXSID5027140

>  <PREFERRED_NAME>
Perfluorooctanesulfonyl fluoride

>  <CASRN>
307-35-7

>  <INCHIKEY>
BHFJBHMTEDLICO-UHFFFAOYSA-N

>  <IUPAC_NAME>
Heptadecafluorooctane-1-sulfonyl fluoride

>  <SMILES>
FC(F)(F)C(F)(F)C(F)(F)C(F)(F)C(F)(F)C(F)(F)C(F)(F)C(F)(F)S(F)(=O)=O

>  <INCHI_STRING>
InChI=1S/C8F18O2S/c9-1(10,3(13,14)5(17,18)7(21,22)23)2(11,12)4(15,16)6(19,20)8(24,25)29(26,27)28


>  <MOLECULAR_FORMULA>
C8F18O2S

>  <AVERAGE_MASS>
502.12

>  <MONOISOTOPIC_MASS>
501.933157348

>  <MOL_FILE>
MOL_FILE

$$$$

  -INDIGO-02112615072D

 17 16  0  0  0  0  0  0  0  0999 V2000
    0.7599    1.0240    0.0000 C   0  0  0  0  0  0  0  0  0  0  0  0
   -0.0101   -0.3097    0.0000 C   0  0  0  0  0  0  0  0  0  0  0  0
    2.0936    0.2540    0.0000 C   0  0  0  0  0  0  0  0  0  0  0  0
    1.5299    2.3576    0.0000 C   0  0  0  0  0  0  0  0  0  0  0  0
   -0.5738    1.7940    0.0000 F   0  0  0  0  0  0  0  0  0  0  0  0
   -1.5501   -0.3097    0.0000 C   0  0  0  0  0  0  0  0  0  0  0  0
    0.7599   -1.6434    0.0000 F   0  0  0  0  0  0  0  0  0  0  0  0
    3.4273   -0.5160    0.0000 F   0  0  0  0  0  0  0  0  0  0  0  0
    2.8636    1.5876    0.0000 F   0  0  0  0  0  0  0  0  0  0  0  0
    1.3236   -1.0797    0.0000 F   0  0  0  0  0  0  0  0  0  0  0  0
    2.2999    3.6913    0.0000 F   0  0  0  0  0  0  0  0  0  0  0  0
    3.0615    2.5186    0.0000 F   0  0  0  0  0  0  0  0  0  0  0  0
    0.1962    3.1276    0.0000 F   0  0  0  0  0  0  0  0  0  0  0  0
   -2.3201   -1.6434    0.0000 C   0  0  0  0  0  0  0  0  0  0  0  0
   -2.3201    1.0240    0.0000 F   0  0  0  0  0  0  0  0  0  0  0  0
   -1.5501   -2.9771    0.0000 O   0  0  0  0  0  0  0  0  0  0  0  0
   -3.8601   -1.6434    0.0000 O   0  0  0  0  0  0  0  0  0  0  0  0
  1  2  1  0  0  0  0
  1  3  1  0  0  0  0
  1  4  1  0  0  0  0
  1  5  1  0  0  0  0
  2  6  2  0  0  0  0
  2  7  1  0  0  0  0
  3  8  1  0  0  0  0
  3  9  1  0  0  0  0
  3 10  1  0  0  0  0
  4 11  1  0  0  0  0
  4 12  1  0  0  0  0
  4 13  1  0  0  0  0
  6 14  1  0  0  0  0
  6 15  1  0  0  0  0
 14 16  1  0  0  0  0
 14 17  2  0  0  0  0
M  END
>  <INPUT>
DTXSID50397558

>  <FOUND_BY>
DSSTox_Substance_Id

>  <DTXSID>
DTXSID50397558

>  <PREFERRED_NAME>
3-(Perfluoroisopropyl)-(2E)-difluoropropenoic acid

>  <CASRN>
103229-89-6

>  <INCHIKEY>
TWDHAMRDYDLSPH-OWOJBTEDSA-N

>  <IUPAC_NAME>
(2E)-2,3,4,5,5,5-Hexafluoro-4-(trifluoromethyl)pent-2-enoic acid

>  <SMILES>
OC(=O)C(\F)=C(/F)C(F)(C(F)(F)F)C(F)(F)F

>  <INCHI_STRING>
InChI=1S/C6HF9O2/c7-1(3(16)17)2(8)4(9,5(10,11)12)6(13,14)15/h(H,16,17)/b2-1+


>  <MOLECULAR_FORMULA>
C6HF9O2

>  <AVERAGE_MASS>
276.058

>  <MONOISOTOPIC_MASS>
275.983282739

>  <MOL_FILE>
MOL_FILE

$$$$

  -INDIGO-02112615072D

 14 13  0  0  0  0  0  0  0  0999 V2000
    9.7485    1.9251    0.0000 I   0  0  0  0  0  0  0  0  0  0  0  0
    3.0800   -1.9251    0.0000 I   0  0  0  0  0  0  0  0  0  0  0  0
    4.9775    0.9486    0.0000 F   0  0  0  0  0  0  0  0  0  0  0  0
    6.5175   -1.7186    0.0000 F   0  0  0  0  0  0  0  0  0  0  0  0
    7.8512   -0.9486    0.0000 F   0  0  0  0  0  0  0  0  0  0  0  0
    6.3112    1.7186    0.0000 F   0  0  0  0  0  0  0  0  0  0  0  0
    9.1849   -0.1786    0.0000 F   0  0  0  0  0  0  0  0  0  0  0  0
    7.6449    2.4886    0.0000 F   0  0  0  0  0  0  0  0  0  0  0  0
    3.6437    0.1786    0.0000 F   0  0  0  0  0  0  0  0  0  0  0  0
    5.1837   -2.4886    0.0000 F   0  0  0  0  0  0  0  0  0  0  0  0
    5.7475   -0.3851    0.0000 C   0  0  0  0  0  0  0  0  0  0  0  0
    7.0812    0.3851    0.0000 C   0  0  0  0  0  0  0  0  0  0  0  0
    8.4149    1.1551    0.0000 C   0  0  0  0  0  0  0  0  0  0  0  0
    4.4137   -1.1551    0.0000 C   0  0  0  0  0  0  0  0  0  0  0  0
  1 13  1  0  0  0  0
  2 14  1  0  0  0  0
  3 11  1  0  0  0  0
  4 11  1  0  0  0  0
  5 12  1  0  0  0  0
  6 12  1  0  0  0  0
  7 13  1  0  0  0  0
  8 13  1  0  0  0  0
  9 14  1  0  0  0  0
 10 14  1  0  0  0  0
 11 12  1  0  0  0  0
 11 14  1  0  0  0  0
 12 13  1  0  0  0  0
M  END
>  <INPUT>
DTXSID30190948

>  <FOUND_BY>
DSSTox_Substance_Id

>  <DTXSID>
DTXSID30190948

>  <PREFERRED_NAME>
Perfluoro-1,4-diiodobutane

>  <CASRN>
375-50-8

>  <INCHIKEY>
JILAKKYYZPDQBE-UHFFFAOYSA-N

>  <IUPAC_NAME>
1,1,2,2,3,3,4,4-Octafluoro-1,4-diiodobutane

>  <SMILES>
FC(F)(I)C(F)(F)C(F)(F)C(F)(F)I

>  <INCHI_STRING>
InChI=1S/C4F8I2/c5-1(6,3(9,10)13)2(7,8)4(11,12)14

>  <MOLECULAR_FORMULA>
C4F8I2

>  <AVERAGE_MASS>
453.84

>  <MONOISOTOPIC_MASS>
453.79617

>  <MOL_FILE>
MOL_FILE

$$$$

  -INDIGO-02112615072D

 25 24  0  0  0  0  0  0  0  0999 V2000
    7.6449    0.8454    0.0000 F   0  0  0  0  0  0  0  0  0  0  0  0
    9.1849   -1.8219    0.0000 F   0  0  0  0  0  0  0  0  0  0  0  0
    8.9785    1.6154    0.0000 F   0  0  0  0  0  0  0  0  0  0  0  0
   10.5187   -1.0519    0.0000 F   0  0  0  0  0  0  0  0  0  0  0  0
    6.3112    0.0754    0.0000 F   0  0  0  0  0  0  0  0  0  0  0  0
    7.8512   -2.5919    0.0000 F   0  0  0  0  0  0  0  0  0  0  0  0
   11.8524   -0.2819    0.0000 F   0  0  0  0  0  0  0  0  0  0  0  0
   10.3124    2.3856    0.0000 F   0  0  0  0  0  0  0  0  0  0  0  0
    4.9775   -0.6946    0.0000 F   0  0  0  0  0  0  0  0  0  0  0  0
    6.5175   -3.3619    0.0000 F   0  0  0  0  0  0  0  0  0  0  0  0
   13.1861    0.4881    0.0000 F   0  0  0  0  0  0  0  0  0  0  0  0
   11.6461    3.1556    0.0000 F   0  0  0  0  0  0  0  0  0  0  0  0
    3.0800   -3.5683    0.0000 F   0  0  0  0  0  0  0  0  0  0  0  0
    3.6437   -1.4646    0.0000 F   0  0  0  0  0  0  0  0  0  0  0  0
    5.1837   -4.1319    0.0000 F   0  0  0  0  0  0  0  0  0  0  0  0
   13.7497    4.1319    0.0000 O   0  0  0  0  0  0  0  0  0  0  0  0
   15.0834    1.8219    0.0000 N   0  0  0  0  0  0  0  0  0  0  0  0
    8.4149   -0.4881    0.0000 C   0  0  0  0  0  0  0  0  0  0  0  0
    9.7485    0.2819    0.0000 C   0  0  0  0  0  0  0  0  0  0  0  0
    7.0812   -1.2581    0.0000 C   0  0  0  0  0  0  0  0  0  0  0  0
   11.0824    1.0519    0.0000 C   0  0  0  0  0  0  0  0  0  0  0  0
    5.7475   -2.0281    0.0000 C   0  0  0  0  0  0  0  0  0  0  0  0
   12.4161    1.8219    0.0000 C   0  0  0  0  0  0  0  0  0  0  0  0
    4.4137   -2.7983    0.0000 C   0  0  0  0  0  0  0  0  0  0  0  0
   13.7497    2.5919    0.0000 C   0  0  0  0  0  0  0  0  0  0  0  0
  1 18  1  0  0  0  0
  2 18  1  0  0  0  0
  3 19  1  0  0  0  0
  4 19  1  0  0  0  0
  5 20  1  0  0  0  0
  6 20  1  0  0  0  0
  7 21  1  0  0  0  0
  8 21  1  0  0  0  0
  9 22  1  0  0  0  0
 10 22  1  0  0  0  0
 11 23  1  0  0  0  0
 12 23  1  0  0  0  0
 13 24  1  0  0  0  0
 14 24  1  0  0  0  0
 15 24  1  0  0  0  0
 16 25  2  0  0  0  0
 17 25  1  0  0  0  0
 18 19  1  0  0  0  0
 18 20  1  0  0  0  0
 19 21  1  0  0  0  0
 20 22  1  0  0  0  0
 21 23  1  0  0  0  0
 22 24  1  0  0  0  0
 23 25  1  0  0  0  0
M  END
>  <INPUT>
DTXSID60195123

>  <FOUND_BY>
DSSTox_Substance_Id

>  <DTXSID>
DTXSID60195123

>  <PREFERRED_NAME>
Perfluorooctanamide

>  <CASRN>
423-54-1

>  <INCHIKEY>
UGMUDSKJLAUMTC-UHFFFAOYSA-N

>  <IUPAC_NAME>
2,2,3,3,4,4,5,5,6,6,7,7,8,8,8-Pentadecafluorooctanamide

>  <SMILES>
NC(=O)C(F)(F)C(F)(F)C(F)(F)C(F)(F)C(F)(F)C(F)(F)C(F)(F)F

>  <INCHI_STRING>
InChI=1S/C8H2F15NO/c9-2(10,1(24)25)3(11,12)4(13,14)5(15,16)6(17,18)7(19,20)8(21,22)23/h(H2,24,25)

>  <MOLECULAR_FORMULA>
C8H2F15NO

>  <AVERAGE_MASS>
413.086

>  <MONOISOTOPIC_MASS>
412.989686133

>  <MOL_FILE>
MOL_FILE

$$$$

  -INDIGO-02112615072D

 34 32  0  0  0  0  0  0  0  0999 V2000
    0.0000   -3.0800    0.0000 C   0  0  0  0  0  0  0  0  0  0  0  0
    1.3337   -2.3100    0.0000 C   0  0  0  0  0  0  0  0  0  0  0  0
    1.3337   -0.7700    0.0000 C   0  0  0  0  0  0  0  0  0  0  0  0
    1.3126    0.5877    0.0000 F   0  0  0  0  0  0  0  0  0  0  0  0
    2.6673    0.0000    0.0000 C   0  0  0  0  0  0  0  0  0  0  0  0
    2.2526    1.6753    0.0000 F   0  0  0  0  0  0  0  0  0  0  0  0
    3.6216    1.3901    0.0000 F   0  0  0  0  0  0  0  0  0  0  0  0
    4.0010   -0.7700    0.0000 C   0  0  0  0  0  0  0  0  0  0  0  0
    5.0418    0.5386    0.0000 F   0  0  0  0  0  0  0  0  0  0  0  0
    5.6694   -0.6731    0.0000 F   0  0  0  0  0  0  0  0  0  0  0  0
    4.0010   -2.3100    0.0000 C   0  0  0  0  0  0  0  0  0  0  0  0
    5.6716   -2.3723    0.0000 F   0  0  0  0  0  0  0  0  0  0  0  0
    5.1107   -3.5837    0.0000 F   0  0  0  0  0  0  0  0  0  0  0  0
    2.6673   -3.0800    0.0000 C   0  0  0  0  0  0  0  0  0  0  0  0
    3.7772   -4.3637    0.0000 F   0  0  0  0  0  0  0  0  0  0  0  0
    2.3432   -4.8268    0.0000 F   0  0  0  0  0  0  0  0  0  0  0  0
    0.0000    0.0000    0.0000 C   0  0  0  0  0  0  0  0  0  0  0  0
    0.3864    1.6837    0.0000 F   0  0  0  0  0  0  0  0  0  0  0  0
   -0.9745    1.3671    0.0000 F   0  0  0  0  0  0  0  0  0  0  0  0
   -1.3337   -0.7700    0.0000 C   0  0  0  0  0  0  0  0  0  0  0  0
   -2.3820    0.5322    0.0000 F   0  0  0  0  0  0  0  0  0  0  0  0
   -2.9993   -0.6863    0.0000 F   0  0  0  0  0  0  0  0  0  0  0  0
   -1.3337   -2.3100    0.0000 C   0  0  0  0  0  0  0  0  0  0  0  0
   -3.0051   -2.2816    0.0000 F   0  0  0  0  0  0  0  0  0  0  0  0
    0.0000   -4.6200    0.0000 F   0  0  0  0  0  0  0  0  0  0  0  0
   -1.1111   -4.8766    0.0000 C   0  0  0  0  0  0  0  0  0  0  0  0
   -1.4515   -3.6585    0.0000 F   0  0  0  0  0  0  0  0  0  0  0  0
    1.4144   -4.1029    0.0000 F   0  0  0  0  0  0  0  0  0  0  0  0
   -2.6468   -4.9924    0.0000 F   0  0  0  0  0  0  0  0  0  0  0  0
   -0.2430   -6.1486    0.0000 F   0  0  0  0  0  0  0  0  0  0  0  0
   -1.7786   -6.2644    0.0000 F   0  0  0  0  0  0  0  0  0  0  0  0
   -0.5556   -3.7216    0.0000 *   0  0  0  0  0  0  0  0  0  0  0  0
    1.0406   -3.3989    0.0000 *   0  0  0  0  0  0  0  0  0  0  0  0
   -1.0592   -3.1767    0.0000 *   0  0  0  0  0  0  0  0  0  0  0  0
  1  2  1  0  0  0  0
  2  3  1  0  0  0  0
  3  4  1  0  0  0  0
  3  5  1  0  0  0  0
  5  6  1  0  0  0  0
  5  7  1  0  0  0  0
  5  8  1  0  0  0  0
  8  9  1  0  0  0  0
  8 10  1  0  0  0  0
  8 11  1  0  0  0  0
 11 12  1  0  0  0  0
 11 13  1  0  0  0  0
 11 14  1  0  0  0  0
  2 14  1  0  0  0  0
 14 15  1  0  0  0  0
 14 16  1  0  0  0  0
  3 17  1  0  0  0  0
 17 18  1  0  0  0  0
 17 19  1  0  0  0  0
 17 20  1  0  0  0  0
 20 21  1  0  0  0  0
 20 22  1  0  0  0  0
 20 23  1  0  0  0  0
  1 23  1  0  0  0  0
 23 24  1  0  0  0  0
  1 25  1  0  0  0  0
 26 30  1  0  0  0  0
 26 31  1  0  0  0  0
 26 29  1  0  0  0  0
 32 26  1  0  0  0  0
 33 28  1  0  0  0  0
 34 27  1  0  0  0  0
M  END
>  <INPUT>
DTXSID00871631

>  <FOUND_BY>
DSSTox_Substance_Id

>  <DTXSID>
DTXSID00871631

>  <PREFERRED_NAME>
Perfluoromethyldecalin

>  <CASRN>
51294-16-7

>  <INCHIKEY>
N/A

>  <IUPAC_NAME>
N/A

>  <SMILES>
F*.F*.FC1C(F)C(F)(F)C(F)(F)C2(F)C1C(F)(F)C(F)(F)C(F)(F)C2(F)F.FC(F)(F)* |lp:0:3,2:3,4:3,7:3,9:3,10:3,12:3,13:3,15:3,18:3,19:3,21:3,22:3,24:3,25:3,27:3,28:3,29:3,31:3,32:3,m:1:5.6,3:5.16,33:5.16.6|

>  <INCHI_STRING>
N/A

>  <MOLECULAR_FORMULA>
C11F20

>  <AVERAGE_MASS>
512.089

>  <MONOISOTOPIC_MASS>
511.96806326

>  <MOL_FILE>
MOL_FILE

$$$$

  -INDIGO-02112615072D

 27 26  0  0  0  0  0  0  0  0999 V2000
    9.7486    1.5400    0.0000 F   0  0  0  0  0  0  0  0  0  0  0  0
    9.7486   -1.5400    0.0000 F   0  0  0  0  0  0  0  0  0  0  0  0
   11.2886    1.5400    0.0000 F   0  0  0  0  0  0  0  0  0  0  0  0
   11.2886   -1.5400    0.0000 F   0  0  0  0  0  0  0  0  0  0  0  0
    8.2086    1.5400    0.0000 F   0  0  0  0  0  0  0  0  0  0  0  0
    8.2086   -1.5400    0.0000 F   0  0  0  0  0  0  0  0  0  0  0  0
   12.8286    1.5400    0.0000 F   0  0  0  0  0  0  0  0  0  0  0  0
   12.8286   -1.5400    0.0000 F   0  0  0  0  0  0  0  0  0  0  0  0
    6.6686    1.5400    0.0000 F   0  0  0  0  0  0  0  0  0  0  0  0
    6.6686   -1.5400    0.0000 F   0  0  0  0  0  0  0  0  0  0  0  0
   14.3686    1.5400    0.0000 F   0  0  0  0  0  0  0  0  0  0  0  0
   14.3686   -1.5400    0.0000 F   0  0  0  0  0  0  0  0  0  0  0  0
    5.1286    1.5400    0.0000 F   0  0  0  0  0  0  0  0  0  0  0  0
    5.1286   -1.5400    0.0000 F   0  0  0  0  0  0  0  0  0  0  0  0
   16.6786    1.3337    0.0000 F   0  0  0  0  0  0  0  0  0  0  0  0
   16.6786   -1.3337    0.0000 F   0  0  0  0  0  0  0  0  0  0  0  0
    2.8186   -1.3337    0.0000 O   0  0  0  0  0  0  0  0  0  0  0  0
    2.8186    1.3337    0.0000 O   0  0  0  0  0  0  0  0  0  0  0  0
    9.7486    0.0000    0.0000 C   0  0  0  0  0  0  0  0  0  0  0  0
   11.2886    0.0000    0.0000 C   0  0  0  0  0  0  0  0  0  0  0  0
    8.2086    0.0000    0.0000 C   0  0  0  0  0  0  0  0  0  0  0  0
   12.8286    0.0000    0.0000 C   0  0  0  0  0  0  0  0  0  0  0  0
    6.6686    0.0000    0.0000 C   0  0  0  0  0  0  0  0  0  0  0  0
   14.3686    0.0000    0.0000 C   0  0  0  0  0  0  0  0  0  0  0  0
    5.1286    0.0000    0.0000 C   0  0  0  0  0  0  0  0  0  0  0  0
   15.9086    0.0000    0.0000 C   0  0  0  0  0  0  0  0  0  0  0  0
    3.5886    0.0000    0.0000 C   0  0  0  0  0  0  0  0  0  0  0  0
  1 19  1  0  0  0  0
  2 19  1  0  0  0  0
  3 20  1  0  0  0  0
  4 20  1  0  0  0  0
  5 21  1  0  0  0  0
  6 21  1  0  0  0  0
  7 22  1  0  0  0  0
  8 22  1  0  0  0  0
  9 23  1  0  0  0  0
 10 23  1  0  0  0  0
 11 24  1  0  0  0  0
 12 24  1  0  0  0  0
 13 25  1  0  0  0  0
 14 25  1  0  0  0  0
 15 26  1  0  0  0  0
 16 26  1  0  0  0  0
 17 27  1  0  0  0  0
 18 27  2  0  0  0  0
 19 20  1  0  0  0  0
 19 21  1  0  0  0  0
 20 22  1  0  0  0  0
 21 23  1  0  0  0  0
 22 24  1  0  0  0  0
 23 25  1  0  0  0  0
 24 26  1  0  0  0  0
 25 27  1  0  0  0  0
M  END
>  <INPUT>
DTXSID50226894

>  <FOUND_BY>
DSSTox_Substance_Id

>  <DTXSID>
DTXSID50226894

>  <PREFERRED_NAME>
9H-Perfluorononanoic acid

>  <CASRN>
76-21-1

>  <INCHIKEY>
RARQGXBOCXOJPM-UHFFFAOYSA-N

>  <IUPAC_NAME>
2,2,3,3,4,4,5,5,6,6,7,7,8,8,9,9-Hexadecafluorononanoic acid

>  <SMILES>
OC(=O)C(F)(F)C(F)(F)C(F)(F)C(F)(F)C(F)(F)C(F)(F)C(F)(F)C(F)F

>  <INCHI_STRING>
InChI=1S/C9H2F16O2/c10-1(11)3(12,13)5(16,17)7(20,21)9(24,25)8(22,23)6(18,19)4(14,15)2(26)27/h1H,(H,26,27)

>  <MOLECULAR_FORMULA>
C9H2F16O2

>  <AVERAGE_MASS>
446.087

>  <MONOISOTOPIC_MASS>
445.979929912

>  <MOL_FILE>
MOL_FILE

$$$$

  -INDIGO-02112615072D

 11 10  0  0  0  0  0  0  0  0999 V2000
    1.5400   -4.6200    0.0000 F   0  0  0  0  0  0  0  0  0  0  0  0
    1.5400   -3.0800    0.0000 C   0  0  0  0  0  0  0  0  0  0  0  0
    3.0800   -3.0800    0.0000 F   0  0  0  0  0  0  0  0  0  0  0  0
    0.0000   -3.0800    0.0000 F   0  0  0  0  0  0  0  0  0  0  0  0
    1.5400   -1.5400    0.0000 C   0  0  0  0  0  0  0  0  0  0  0  0
    3.0800   -1.5400    0.0000 F   0  0  0  0  0  0  0  0  0  0  0  0
    0.0000   -1.5400    0.0000 F   0  0  0  0  0  0  0  0  0  0  0  0
    1.5400    0.0000    0.0000 C   0  0  0  0  0  0  0  0  0  0  0  0
    1.5400    1.5400    0.0000 F   0  0  0  0  0  0  0  0  0  0  0  0
    3.0800    0.0000    0.0000 F   0  0  0  0  0  0  0  0  0  0  0  0
    0.0000    0.0000    0.0000 I   0  0  0  0  0  0  0  0  0  0  0  0
  1  2  1  0  0  0  0
  2  3  1  0  0  0  0
  2  4  1  0  0  0  0
  2  5  1  0  0  0  0
  5  6  1  0  0  0  0
  5  7  1  0  0  0  0
  5  8  1  0  0  0  0
  8  9  1  0  0  0  0
  8 10  1  0  0  0  0
  8 11  1  0  0  0  0
M  END
>  <INPUT>
DTXSID1061073

>  <FOUND_BY>
DSSTox_Substance_Id

>  <DTXSID>
DTXSID1061073

>  <PREFERRED_NAME>
Heptafluoropropyl iodide

>  <CASRN>
754-34-7

>  <INCHIKEY>
XTGYEAXBNRVNQU-UHFFFAOYSA-N

>  <IUPAC_NAME>
1,1,1,2,2,3,3-Heptafluoro-3-iodopropane

>  <SMILES>
FC(F)(F)C(F)(F)C(F)(F)I

>  <INCHI_STRING>
InChI=1S/C3F7I/c4-1(5,2(6,7)8)3(9,10)11

>  <MOLECULAR_FORMULA>
C3F7I

>  <AVERAGE_MASS>
295.926

>  <MONOISOTOPIC_MASS>
295.89329

>  <MOL_FILE>
MOL_FILE

$$$$

  -INDIGO-02112615072D

 29 28  0  0  0  0  0  0  0  0999 V2000
    9.1193    0.1012    0.0000 F   0  0  0  0  0  0  0  0  0  0  0  0
   12.5567    0.3075    0.0000 F   0  0  0  0  0  0  0  0  0  0  0  0
    9.8893   -1.2325    0.0000 F   0  0  0  0  0  0  0  0  0  0  0  0
   12.5567   -3.8998    0.0000 F   0  0  0  0  0  0  0  0  0  0  0  0
    8.1430    3.7449    0.0000 F   0  0  0  0  0  0  0  0  0  0  0  0
    8.1430    0.6649    0.0000 F   0  0  0  0  0  0  0  0  0  0  0  0
   13.1203    2.4112    0.0000 F   0  0  0  0  0  0  0  0  0  0  0  0
   13.1935    1.0148    0.0000 F   0  0  0  0  0  0  0  0  0  0  0  0
   11.0167    2.9749    0.0000 F   0  0  0  0  0  0  0  0  0  0  0  0
    6.6030    3.7449    0.0000 F   0  0  0  0  0  0  0  0  0  0  0  0
    6.6030    0.6649    0.0000 F   0  0  0  0  0  0  0  0  0  0  0  0
    9.6830   -5.7972    0.0000 F   0  0  0  0  0  0  0  0  0  0  0  0
   11.7867   -5.2335    0.0000 F   0  0  0  0  0  0  0  0  0  0  0  0
    9.1193   -3.6935    0.0000 F   0  0  0  0  0  0  0  0  0  0  0  0
    3.5230    2.2049    0.0000 F   0  0  0  0  0  0  0  0  0  0  0  0
    5.0630    3.7449    0.0000 F   0  0  0  0  0  0  0  0  0  0  0  0
    5.0630    0.6649    0.0000 F   0  0  0  0  0  0  0  0  0  0  0  0
    9.6830    2.2049    0.0000 O   0  0  0  0  0  0  0  0  0  0  0  0
   11.9930   -1.7961    0.0000 O   0  0  0  0  0  0  0  0  0  0  0  0
    8.5556   -3.1298    0.0000 O   0  0  0  0  0  0  0  0  0  0  0  0
   10.4530    0.8712    0.0000 C   0  0  0  0  0  0  0  0  0  0  0  0
   11.2230   -0.4625    0.0000 C   0  0  0  0  0  0  0  0  0  0  0  0
   11.2230   -3.1298    0.0000 C   0  0  0  0  0  0  0  0  0  0  0  0
    8.1430    2.2049    0.0000 C   0  0  0  0  0  0  0  0  0  0  0  0
   11.7867    1.6412    0.0000 C   0  0  0  0  0  0  0  0  0  0  0  0
    6.6030    2.2049    0.0000 C   0  0  0  0  0  0  0  0  0  0  0  0
    9.8893   -2.3598    0.0000 C   0  0  0  0  0  0  0  0  0  0  0  0
   10.4530   -4.4635    0.0000 C   0  0  0  0  0  0  0  0  0  0  0  0
    5.0630    2.2049    0.0000 C   0  0  0  0  0  0  0  0  0  0  0  0
  1 21  1  0  0  0  0
  2 22  1  0  0  0  0
  3 22  1  0  0  0  0
  4 23  1  0  0  0  0
  5 24  1  0  0  0  0
  6 24  1  0  0  0  0
  7 25  1  0  0  0  0
  8 25  1  0  0  0  0
  9 25  1  0  0  0  0
 10 26  1  0  0  0  0
 11 26  1  0  0  0  0
 12 28  1  0  0  0  0
 13 28  1  0  0  0  0
 14 28  1  0  0  0  0
 15 29  1  0  0  0  0
 16 29  1  0  0  0  0
 17 29  1  0  0  0  0
 18 21  1  0  0  0  0
 18 24  1  0  0  0  0
 19 22  1  0  0  0  0
 19 23  1  0  0  0  0
 20 27  1  0  0  0  0
 21 22  1  0  0  0  0
 21 25  1  0  0  0  0
 23 27  1  0  0  0  0
 23 28  1  0  0  0  0
 24 26  1  0  0  0  0
 26 29  1  0  0  0  0
M  END
>  <INPUT>
DTXSID80371164

>  <FOUND_BY>
DSSTox_Substance_Id

>  <DTXSID>
DTXSID80371164

>  <PREFERRED_NAME>
1H,1H-Perfluoro-2,5-dimethyl-3,6-dioxanonan-1-ol

>  <CASRN>
14548-74-4

>  <INCHIKEY>
URIUSGOUQUQAMG-UHFFFAOYNA-N

>  <IUPAC_NAME>
2,3,3,3-Tetrafluoro-2-[1,1,2,3,3,3-hexafluoro-2-(heptafluoropropoxy)propoxy]propan-1-ol

>  <SMILES>
OCC(F)(OC(F)(F)C(F)(OC(F)(F)C(F)(F)C(F)(F)F)C(F)(F)F)C(F)(F)F

>  <INCHI_STRING>
InChI=1/C9H3F17O3/c10-2(1-27,5(14,15)16)28-9(25,26)4(13,7(20,21)22)29-8(23,24)3(11,12)6(17,18)19/h27H,1H2


>  <MOLECULAR_FORMULA>
C9H3F17O3

>  <AVERAGE_MASS>
482.093

>  <MONOISOTOPIC_MASS>
481.981072728

>  <MOL_FILE>
MOL_FILE

$$$$

  -INDIGO-02112615072D

 13 12  0  0  0  0  0  0  0  0999 V2000
    6.5175   -2.5810    0.0000 F   0  0  0  0  0  0  0  0  0  0  0  0
    8.4149    0.2927    0.0000 F   0  0  0  0  0  0  0  0  0  0  0  0
    7.0812    1.0627    0.0000 F   0  0  0  0  0  0  0  0  0  0  0  0
    7.8512   -1.8110    0.0000 F   0  0  0  0  0  0  0  0  0  0  0  0
    3.0800   -2.7875    0.0000 F   0  0  0  0  0  0  0  0  0  0  0  0
    3.6437   -0.6838    0.0000 F   0  0  0  0  0  0  0  0  0  0  0  0
    5.1837   -3.3510    0.0000 F   0  0  0  0  0  0  0  0  0  0  0  0
    3.6437    2.3962    0.0000 O   0  0  0  0  0  0  0  0  0  0  0  0
    5.7475   -1.2475    0.0000 C   0  0  0  0  0  0  0  0  0  0  0  0
    4.9775    0.0862    0.0000 C   0  0  0  0  0  0  0  0  0  0  0  0
    7.0812   -0.4775    0.0000 C   0  0  0  0  0  0  0  0  0  0  0  0
    4.4137   -2.0175    0.0000 C   0  0  0  0  0  0  0  0  0  0  0  0
    4.9775    1.6262    0.0000 C   0  0  0  0  0  0  0  0  0  0  0  0
  1  9  1  0  0  0  0
  2 11  1  0  0  0  0
  3 11  1  0  0  0  0
  4 11  1  0  0  0  0
  5 12  1  0  0  0  0
  6 12  1  0  0  0  0
  7 12  1  0  0  0  0
  8 13  1  0  0  0  0
  9 10  1  0  0  0  0
  9 11  1  0  0  0  0
  9 12  1  0  0  0  0
 10 13  1  0  0  0  0
M  END
>  <INPUT>
DTXSID00382171

>  <FOUND_BY>
DSSTox_Substance_Id

>  <DTXSID>
DTXSID00382171

>  <PREFERRED_NAME>
2(Perfluoro-2-propyl)ethanol

>  <CASRN>
90999-87-4

>  <INCHIKEY>
KKVIDVONCZYZLR-UHFFFAOYSA-N

>  <IUPAC_NAME>
3,4,4,4-Tetrafluoro-3-(trifluoromethyl)butan-1-ol

>  <SMILES>
OCCC(F)(C(F)(F)F)C(F)(F)F

>  <INCHI_STRING>
InChI=1S/C5H5F7O/c6-3(1-2-13,4(7,8)9)5(10,11)12/h13H,1-2H2

>  <MOLECULAR_FORMULA>
C5H5F7O

>  <AVERAGE_MASS>
214.083

>  <MONOISOTOPIC_MASS>
214.022861922

>  <MOL_FILE>
MOL_FILE

$$$$

  -INDIGO-02112615072D

 27 26  0  0  0  0  0  0  0  0999 V2000
   14.4616   -3.2587    0.0000 F   0  0  0  0  0  0  0  0  0  0  0  0
   16.0016   -0.5913    0.0000 F   0  0  0  0  0  0  0  0  0  0  0  0
   13.1279   -2.4887    0.0000 F   0  0  0  0  0  0  0  0  0  0  0  0
   14.6679    0.1787    0.0000 F   0  0  0  0  0  0  0  0  0  0  0  0
   11.7943   -1.7187    0.0000 F   0  0  0  0  0  0  0  0  0  0  0  0
   13.3343    0.9487    0.0000 F   0  0  0  0  0  0  0  0  0  0  0  0
   10.4606   -0.9487    0.0000 F   0  0  0  0  0  0  0  0  0  0  0  0
   12.0006    1.7187    0.0000 F   0  0  0  0  0  0  0  0  0  0  0  0
    9.1269   -0.1787    0.0000 F   0  0  0  0  0  0  0  0  0  0  0  0
   10.6669    2.4887    0.0000 F   0  0  0  0  0  0  0  0  0  0  0  0
    7.2295    2.6950    0.0000 F   0  0  0  0  0  0  0  0  0  0  0  0
    7.7932    0.5913    0.0000 F   0  0  0  0  0  0  0  0  0  0  0  0
    9.3332    3.2587    0.0000 F   0  0  0  0  0  0  0  0  0  0  0  0
   15.2316   -1.9250    0.0000 C   0  0  0  0  0  0  0  0  0  0  0  0
   16.5653   -2.6950    0.0000 C   0  0  0  0  0  0  0  0  0  0  0  0
   13.8979   -1.1550    0.0000 C   0  0  0  0  0  0  0  0  0  0  0  0
   17.8990   -1.9250    0.0000 C   0  0  0  0  0  0  0  0  0  0  0  0
   19.2326   -2.6950    0.0000 C   0  0  0  0  0  0  0  0  0  0  0  0
   12.5643   -0.3850    0.0000 C   0  0  0  0  0  0  0  0  0  0  0  0
   20.5663   -1.9250    0.0000 C   0  0  0  0  0  0  0  0  0  0  0  0
   11.2306    0.3850    0.0000 C   0  0  0  0  0  0  0  0  0  0  0  0
   21.9000   -2.6950    0.0000 C   0  0  0  0  0  0  0  0  0  0  0  0
    9.8969    1.1550    0.0000 C   0  0  0  0  0  0  0  0  0  0  0  0
   23.2337   -1.9250    0.0000 C   0  0  0  0  0  0  0  0  0  0  0  0
   24.5674   -2.6950    0.0000 C   0  0  0  0  0  0  0  0  0  0  0  0
    8.5632    1.9250    0.0000 C   0  0  0  0  0  0  0  0  0  0  0  0
   25.9010   -1.9250    0.0000 C   0  0  0  0  0  0  0  0  0  0  0  0
  1 14  1  0  0  0  0
  2 14  1  0  0  0  0
  3 16  1  0  0  0  0
  4 16  1  0  0  0  0
  5 19  1  0  0  0  0
  6 19  1  0  0  0  0
  7 21  1  0  0  0  0
  8 21  1  0  0  0  0
  9 23  1  0  0  0  0
 10 23  1  0  0  0  0
 11 26  1  0  0  0  0
 12 26  1  0  0  0  0
 13 26  1  0  0  0  0
 14 15  1  0  0  0  0
 14 16  1  0  0  0  0
 15 17  1  0  0  0  0
 16 19  1  0  0  0  0
 17 18  1  0  0  0  0
 18 20  1  0  0  0  0
 19 21  1  0  0  0  0
 20 22  1  0  0  0  0
 21 23  1  0  0  0  0
 22 24  1  0  0  0  0
 23 26  1  0  0  0  0
 24 25  1  0  0  0  0
 25 27  1  0  0  0  0
M  END
>  <INPUT>
DTXSID20440585

>  <FOUND_BY>
DSSTox_Substance_Id

>  <DTXSID>
DTXSID20440585

>  <PREFERRED_NAME>
1-(Perfluorohexyl)octane

>  <CASRN>
133331-77-8

>  <INCHIKEY>
WRYIIOKOQSICTB-UHFFFAOYSA-N

>  <IUPAC_NAME>
1,1,1,2,2,3,3,4,4,5,5,6,6-Tridecafluorotetradecane

>  <SMILES>
CCCCCCCCC(F)(F)C(F)(F)C(F)(F)C(F)(F)C(F)(F)C(F)(F)F

>  <INCHI_STRING>
InChI=1S/C14H17F13/c1-2-3-4-5-6-7-8-9(15,16)10(17,18)11(19,20)12(21,22)13(23,24)14(25,26)27/h2-8H2,1H3


>  <MOLECULAR_FORMULA>
C14H17F13

>  <AVERAGE_MASS>
432.269

>  <MONOISOTOPIC_MASS>
432.112266666

>  <MOL_FILE>
MOL_FILE

$$$$

  -INDIGO-02112615072D

 21 20  0  0  0  0  0  0  0  0999 V2000
   -0.3494   -5.5618    0.0000 C   0  0  0  0  0  0  0  0  0  0  0  0
   -0.3494   -4.0218    0.0000 C   0  0  0  0  0  0  0  0  0  0  0  0
    0.9843   -3.2518    0.0000 C   0  0  0  0  0  0  0  0  0  0  0  0
    0.9843   -1.7118    0.0000 C   0  0  0  0  0  0  0  0  0  0  0  0
    0.9843   -0.1718    0.0000 C   0  0  0  0  0  0  0  0  0  0  0  0
    0.9843    1.3682    0.0000 C   0  0  0  0  0  0  0  0  0  0  0  0
    0.9843    2.9082    0.0000 C   0  0  0  0  0  0  0  0  0  0  0  0
    0.9843    4.4482    0.0000 C   0  0  0  0  0  0  0  0  0  0  0  0
   -1.6830   -6.3318    0.0000 O   0  0  0  0  0  0  0  0  0  0  0  0
    0.9843   -6.3318    0.0000 O   0  0  0  0  0  0  0  0  0  0  0  0
    2.5243   -1.7118    0.0000 F   0  0  0  0  0  0  0  0  0  0  0  0
   -0.5557   -1.7118    0.0000 F   0  0  0  0  0  0  0  0  0  0  0  0
    2.5243   -0.1718    0.0000 F   0  0  0  0  0  0  0  0  0  0  0  0
   -0.5557   -0.1718    0.0000 F   0  0  0  0  0  0  0  0  0  0  0  0
    2.5243    1.3682    0.0000 F   0  0  0  0  0  0  0  0  0  0  0  0
   -0.5557    1.3682    0.0000 F   0  0  0  0  0  0  0  0  0  0  0  0
    2.5243    2.9082    0.0000 F   0  0  0  0  0  0  0  0  0  0  0  0
   -0.5557    2.9082    0.0000 F   0  0  0  0  0  0  0  0  0  0  0  0
    0.9843    5.9882    0.0000 F   0  0  0  0  0  0  0  0  0  0  0  0
    2.5243    4.4482    0.0000 F   0  0  0  0  0  0  0  0  0  0  0  0
   -0.5557    4.4482    0.0000 F   0  0  0  0  0  0  0  0  0  0  0  0
  2  1  1  0  0  0  0
 10  1  1  0  0  0  0
  9  1  2  0  0  0  0
  3  2  1  0  0  0  0
  4  3  1  0  0  0  0
  5  4  1  0  0  0  0
 11  4  1  0  0  0  0
 12  4  1  0  0  0  0
  6  5  1  0  0  0  0
 13  5  1  0  0  0  0
 14  5  1  0  0  0  0
  7  6  1  0  0  0  0
 15  6  1  0  0  0  0
 16  6  1  0  0  0  0
  8  7  1  0  0  0  0
 17  7  1  0  0  0  0
 18  7  1  0  0  0  0
 19  8  1  0  0  0  0
 20  8  1  0  0  0  0
 21  8  1  0  0  0  0
M  END
>  <INPUT>
DTXSID20874028

>  <FOUND_BY>
DSSTox_Substance_Id

>  <DTXSID>
DTXSID20874028

>  <PREFERRED_NAME>
2H,2H,3H,3H-Perfluorooctanoic acid

>  <CASRN>
914637-49-3

>  <INCHIKEY>
ABFCFCPCGMHSRX-UHFFFAOYSA-N

>  <IUPAC_NAME>
4,4,5,5,6,6,7,7,8,8,8-Undecafluorooctanoic acid

>  <SMILES>
OC(=O)CCC(F)(F)C(F)(F)C(F)(F)C(F)(F)C(F)(F)F

>  <INCHI_STRING>
InChI=1S/C8H5F11O2/c9-4(10,2-1-3(20)21)5(11,12)6(13,14)7(15,16)8(17,18)19/h1-2H2,(H,20,21)

>  <MOLECULAR_FORMULA>
C8H5F11O2

>  <AVERAGE_MASS>
342.108

>  <MONOISOTOPIC_MASS>
342.011389194

>  <MOL_FILE>
MOL_FILE

$$$$

  -INDIGO-02112615072D

 22 21  0  0  0  0  0  0  0  0999 V2000
    9.9583    3.9116    0.0000 F   0  0  0  0  0  0  0  0  0  0  0  0
    8.4183    3.9116    0.0000 C   0  0  0  0  0  0  0  0  0  0  0  0
    8.4183    5.4516    0.0000 F   0  0  0  0  0  0  0  0  0  0  0  0
    8.4182    2.3716    0.0000 F   0  0  0  0  0  0  0  0  0  0  0  0
    6.8784    3.9116    0.0000 C   0  0  0  0  0  0  0  0  0  0  0  0
    6.8783    5.4516    0.0000 F   0  0  0  0  0  0  0  0  0  0  0  0
    6.8783    2.3717    0.0000 F   0  0  0  0  0  0  0  0  0  0  0  0
    5.3384    3.9116    0.0000 C   0  0  0  0  0  0  0  0  0  0  0  0
    5.3383    5.4516    0.0000 F   0  0  0  0  0  0  0  0  0  0  0  0
    5.3383    2.3717    0.0000 F   0  0  0  0  0  0  0  0  0  0  0  0
    3.7984    3.9116    0.0000 C   0  0  0  0  0  0  0  0  0  0  0  0
    3.7983    5.4516    0.0000 F   0  0  0  0  0  0  0  0  0  0  0  0
    3.7983    2.3717    0.0000 F   0  0  0  0  0  0  0  0  0  0  0  0
    2.2584    3.9116    0.0000 C   0  0  0  0  0  0  0  0  0  0  0  0
    2.2583    5.4516    0.0000 F   0  0  0  0  0  0  0  0  0  0  0  0
    2.2583    2.3717    0.0000 F   0  0  0  0  0  0  0  0  0  0  0  0
    0.7184    3.9116    0.0000 C   0  0  0  0  0  0  0  0  0  0  0  0
    0.7183    5.4516    0.0000 F   0  0  0  0  0  0  0  0  0  0  0  0
    0.7183    2.3716    0.0000 F   0  0  0  0  0  0  0  0  0  0  0  0
   -0.8216    3.9116    0.0000 C   0  0  0  0  0  0  0  0  0  0  0  0
   -1.5916    2.5779    0.0000 F   0  0  0  0  0  0  0  0  0  0  0  0
   -1.5915    5.2453    0.0000 F   0  0  0  0  0  0  0  0  0  0  0  0
  1  2  1  0  0  0  0
  2  3  1  0  0  0  0
  2  4  1  0  0  0  0
  2  5  1  0  0  0  0
  5  6  1  0  0  0  0
  5  7  1  0  0  0  0
  5  8  1  0  0  0  0
  8  9  1  0  0  0  0
  8 10  1  0  0  0  0
  8 11  1  0  0  0  0
 11 12  1  0  0  0  0
 11 13  1  0  0  0  0
 11 14  1  0  0  0  0
 14 15  1  0  0  0  0
 14 16  1  0  0  0  0
 14 17  1  0  0  0  0
 17 18  1  0  0  0  0
 17 19  1  0  0  0  0
 17 20  1  0  0  0  0
 20 21  1  0  0  0  0
 20 22  1  0  0  0  0
M  END
>  <INPUT>
DTXSID80871634

>  <FOUND_BY>
DSSTox_Substance_Id

>  <DTXSID>
DTXSID80871634

>  <PREFERRED_NAME>
1H-Perfluoroheptane

>  <CASRN>
375-83-7

>  <INCHIKEY>
HBZVXKDQRIQMCW-UHFFFAOYSA-N

>  <IUPAC_NAME>
1,1,1,2,2,3,3,4,4,5,5,6,6,7,7-Pentadecafluoroheptane

>  <SMILES>
FC(F)C(F)(F)C(F)(F)C(F)(F)C(F)(F)C(F)(F)C(F)(F)F

>  <INCHI_STRING>
InChI=1S/C7HF15/c8-1(9)2(10,11)3(12,13)4(14,15)5(16,17)6(18,19)7(20,21)22/h1H


>  <MOLECULAR_FORMULA>
C7HF15

>  <AVERAGE_MASS>
370.061

>  <MONOISOTOPIC_MASS>
369.983872477

>  <MOL_FILE>
MOL_FILE

$$$$

  -INDIGO-02112615072D

 13 12  0  0  0  0  0  0  0  0999 V2000
    8.4149    1.2581    0.0000 F   0  0  0  0  0  0  0  0  0  0  0  0
    7.0812    2.0281    0.0000 F   0  0  0  0  0  0  0  0  0  0  0  0
    7.8512   -0.8454    0.0000 F   0  0  0  0  0  0  0  0  0  0  0  0
    3.0800   -1.8219    0.0000 F   0  0  0  0  0  0  0  0  0  0  0  0
    3.6437    0.2819    0.0000 F   0  0  0  0  0  0  0  0  0  0  0  0
    5.1837   -2.3856    0.0000 F   0  0  0  0  0  0  0  0  0  0  0  0
    3.6437    1.8219    0.0000 F   0  0  0  0  0  0  0  0  0  0  0  0
    5.7475    2.3856    0.0000 O   0  0  0  0  0  0  0  0  0  0  0  0
    5.7475   -0.2819    0.0000 C   0  0  0  0  0  0  0  0  0  0  0  0
    7.0812    0.4881    0.0000 C   0  0  0  0  0  0  0  0  0  0  0  0
    4.4137   -1.0519    0.0000 C   0  0  0  0  0  0  0  0  0  0  0  0
    6.5175   -1.6154    0.0000 C   0  0  0  0  0  0  0  0  0  0  0  0
    4.9775    1.0519    0.0000 C   0  0  0  0  0  0  0  0  0  0  0  0
  1 10  1  0  0  0  0
  2 10  1  0  0  0  0
  3 10  1  0  0  0  0
  4 11  1  0  0  0  0
  5 11  1  0  0  0  0
  6 11  1  0  0  0  0
  8 13  2  0  0  0  0
  9 10  1  0  0  0  0
  9 11  1  0  0  0  0
  9 12  1  0  0  0  0
  9 13  1  0  0  0  0
  7 13  1  0  0  0  0
M  END
>  <INPUT>
DTXSID50371191

>  <FOUND_BY>
DSSTox_Substance_Id

>  <DTXSID>
DTXSID50371191

>  <PREFERRED_NAME>
2,2-Bis(trifluoromethyl)propionyl fluoride

>  <CASRN>
1735-87-1

>  <INCHIKEY>
LKMMDSMLDJMRSU-UHFFFAOYSA-N

>  <IUPAC_NAME>
3,3,3-Trifluoro-2-methyl-2-(trifluoromethyl)propanoyl fluoride

>  <SMILES>
CC(C(F)=O)(C(F)(F)F)C(F)(F)F

>  <INCHI_STRING>
InChI=1S/C5H3F7O/c1-3(2(6)13,4(7,8)9)5(10,11)12/h1H3


>  <MOLECULAR_FORMULA>
C5H3F7O

>  <AVERAGE_MASS>
212.067

>  <MONOISOTOPIC_MASS>
212.007211858

>  <MOL_FILE>
MOL_FILE

$$$$

  -INDIGO-02112615072D

 26 24  0  0  0  0  0  0  0  0999 V2000
   20.1519   -5.9638    0.0000 N   0  0  0  0  0  0  0  0  0  0  0  0
   18.8992   -3.1500    0.0000 C   0  0  0  0  0  0  0  0  0  0  0  0
   17.3676   -2.9890    0.0000 C   0  0  0  0  0  0  0  0  0  0  0  0
   15.8361   -2.8280    0.0000 C   0  0  0  0  0  0  0  0  0  0  0  0
   14.3045   -2.6671    0.0000 C   0  0  0  0  0  0  0  0  0  0  0  0
   12.7729   -2.5061    0.0000 C   0  0  0  0  0  0  0  0  0  0  0  0
   11.2414   -2.3451    0.0000 C   0  0  0  0  0  0  0  0  0  0  0  0
    9.7098   -2.1842    0.0000 C   0  0  0  0  0  0  0  0  0  0  0  0
    8.1782   -2.0232    0.0000 C   0  0  0  0  0  0  0  0  0  0  0  0
   19.8044   -1.9041    0.0000 O   0  0  0  0  0  0  0  0  0  0  0  0
   19.5256   -4.5569    0.0000 O   0  0  0  0  0  0  0  0  0  0  0  0
   17.5286   -1.4575    0.0000 F   0  0  0  0  0  0  0  0  0  0  0  0
   17.2067   -4.5206    0.0000 F   0  0  0  0  0  0  0  0  0  0  0  0
   15.9970   -1.2965    0.0000 F   0  0  0  0  0  0  0  0  0  0  0  0
   15.6751   -4.3596    0.0000 F   0  0  0  0  0  0  0  0  0  0  0  0
   14.4655   -1.1355    0.0000 F   0  0  0  0  0  0  0  0  0  0  0  0
   14.1435   -4.1986    0.0000 F   0  0  0  0  0  0  0  0  0  0  0  0
   12.9339   -0.9745    0.0000 F   0  0  0  0  0  0  0  0  0  0  0  0
   12.6120   -4.0377    0.0000 F   0  0  0  0  0  0  0  0  0  0  0  0
   11.4024   -0.8136    0.0000 F   0  0  0  0  0  0  0  0  0  0  0  0
   11.0804   -3.8767    0.0000 F   0  0  0  0  0  0  0  0  0  0  0  0
    9.8708   -0.6526    0.0000 F   0  0  0  0  0  0  0  0  0  0  0  0
    9.5488   -3.7157    0.0000 F   0  0  0  0  0  0  0  0  0  0  0  0
    6.6467   -1.8622    0.0000 F   0  0  0  0  0  0  0  0  0  0  0  0
    8.3392   -0.4916    0.0000 F   0  0  0  0  0  0  0  0  0  0  0  0
    8.0173   -3.5547    0.0000 F   0  0  0  0  0  0  0  0  0  0  0  0
  2  3  1  0  0  0  0
  2 11  1  0  0  0  0
  2 10  2  0  0  0  0
  3  4  1  0  0  0  0
  3 12  1  0  0  0  0
  3 13  1  0  0  0  0
  4  5  1  0  0  0  0
  4 14  1  0  0  0  0
  4 15  1  0  0  0  0
  5  6  1  0  0  0  0
  5 16  1  0  0  0  0
  5 17  1  0  0  0  0
  6  7  1  0  0  0  0
  6 18  1  0  0  0  0
  6 19  1  0  0  0  0
  7  8  1  0  0  0  0
  7 20  1  0  0  0  0
  7 21  1  0  0  0  0
  8  9  1  0  0  0  0
  8 22  1  0  0  0  0
  8 23  1  0  0  0  0
  9 24  1  0  0  0  0
  9 25  1  0  0  0  0
  9 26  1  0  0  0  0
M  CHG  2   1   1  11  -1
M  END
>  <INPUT>
DTXSID8037708

>  <FOUND_BY>
DSSTox_Substance_Id

>  <DTXSID>
DTXSID8037708

>  <PREFERRED_NAME>
Ammonium perfluorooctanoate

>  <CASRN>
3825-26-1

>  <INCHIKEY>
YOALFLHFSFEMLP-UHFFFAOYSA-N

>  <IUPAC_NAME>
Ammonium pentadecafluorooctanoate

>  <SMILES>
[NH4+].[O-]C(=O)C(F)(F)C(F)(F)C(F)(F)C(F)(F)C(F)(F)C(F)(F)C(F)(F)F

>  <INCHI_STRING>
InChI=1S/C8HF15O2.H3N/c9-2(10,1(24)25)3(11,12)4(13,14)5(15,16)6(17,18)7(19,20)8(21,22)23;/h(H,24,25);1H3


>  <MOLECULAR_FORMULA>
C8H4F15NO2

>  <AVERAGE_MASS>
431.101

>  <MONOISOTOPIC_MASS>
431.000250818

>  <MOL_FILE>
MOL_FILE

$$$$

  -INDIGO-02112615072D

 30 28  0  0  0  0  0  0  0  0999 V2000
   -8.4405   -0.1270    0.0000 K   0  0  0  0  0  0  0  0  0  0  0  0
   -5.4195    0.0000    0.0000 S   0  0  0  0  0  0  0  0  0  0  0  0
   -6.9595    0.0000    0.0000 O   0  0  0  0  0  0  0  0  0  0  0  0
   -5.4195   -1.5400    0.0000 O   0  0  0  0  0  0  0  0  0  0  0  0
   -5.4195    1.5400    0.0000 O   0  0  0  0  0  0  0  0  0  0  0  0
   -3.8795    0.0000    0.0000 C   0  0  0  0  0  0  0  0  0  0  0  0
   -3.8795   -1.5400    0.0000 F   0  0  0  0  0  0  0  0  0  0  0  0
   -3.8795    1.5400    0.0000 F   0  0  0  0  0  0  0  0  0  0  0  0
   -2.3395    0.0000    0.0000 C   0  0  0  0  0  0  0  0  0  0  0  0
   -2.3395   -1.5400    0.0000 F   0  0  0  0  0  0  0  0  0  0  0  0
   -2.3395    1.5400    0.0000 F   0  0  0  0  0  0  0  0  0  0  0  0
   -0.7995    0.0000    0.0000 C   0  0  0  0  0  0  0  0  0  0  0  0
   -0.7995   -1.5400    0.0000 F   0  0  0  0  0  0  0  0  0  0  0  0
   -0.7995    1.5400    0.0000 F   0  0  0  0  0  0  0  0  0  0  0  0
    0.7405    0.0000    0.0000 C   0  0  0  0  0  0  0  0  0  0  0  0
    0.7405   -1.5400    0.0000 F   0  0  0  0  0  0  0  0  0  0  0  0
    0.7405    1.5400    0.0000 F   0  0  0  0  0  0  0  0  0  0  0  0
    2.2805    0.0000    0.0000 C   0  0  0  0  0  0  0  0  0  0  0  0
    2.2805   -1.5400    0.0000 F   0  0  0  0  0  0  0  0  0  0  0  0
    2.2805    1.5400    0.0000 F   0  0  0  0  0  0  0  0  0  0  0  0
    3.8205    0.0000    0.0000 C   0  0  0  0  0  0  0  0  0  0  0  0
    3.8205   -1.5400    0.0000 F   0  0  0  0  0  0  0  0  0  0  0  0
    3.8205    1.5400    0.0000 F   0  0  0  0  0  0  0  0  0  0  0  0
    5.3605    0.0000    0.0000 C   0  0  0  0  0  0  0  0  0  0  0  0
    6.9005    0.0000    0.0000 C   0  0  0  0  0  0  0  0  0  0  0  0
    5.3605   -1.5400    0.0000 F   0  0  0  0  0  0  0  0  0  0  0  0
    5.3605    1.5400    0.0000 F   0  0  0  0  0  0  0  0  0  0  0  0
    6.9005   -1.5400    0.0000 F   0  0  0  0  0  0  0  0  0  0  0  0
    6.9005    1.5400    0.0000 F   0  0  0  0  0  0  0  0  0  0  0  0
    8.4405    0.0000    0.0000 F   0  0  0  0  0  0  0  0  0  0  0  0
  2  3  1  0  0  0  0
  2  4  2  0  0  0  0
  2  5  2  0  0  0  0
  2  6  1  0  0  0  0
  6  7  1  0  0  0  0
  6  8  1  0  0  0  0
  6  9  1  0  0  0  0
  9 10  1  0  0  0  0
  9 11  1  0  0  0  0
  9 12  1  0  0  0  0
 12 13  1  0  0  0  0
 12 14  1  0  0  0  0
 12 15  1  0  0  0  0
 15 16  1  0  0  0  0
 15 17  1  0  0  0  0
 15 18  1  0  0  0  0
 18 19  1  0  0  0  0
 18 20  1  0  0  0  0
 18 21  1  0  0  0  0
 21 22  1  0  0  0  0
 21 23  1  0  0  0  0
 21 24  1  0  0  0  0
 24 25  1  0  0  0  0
 24 26  1  0  0  0  0
 24 27  1  0  0  0  0
 25 28  1  0  0  0  0
 25 29  1  0  0  0  0
 25 30  1  0  0  0  0
M  CHG  2   1   1   3  -1
M  END
>  <INPUT>
DTXSID8037706

>  <FOUND_BY>
DSSTox_Substance_Id

>  <DTXSID>
DTXSID8037706

>  <PREFERRED_NAME>
Potassium perfluorooctanesulfonate

>  <CASRN>
2795-39-3

>  <INCHIKEY>
WFRUBUQWJYMMRQ-UHFFFAOYSA-M

>  <IUPAC_NAME>
Potassium heptadecafluorooctane-1-sulfonate

>  <SMILES>
[K+].[O-]S(=O)(=O)C(F)(F)C(F)(F)C(F)(F)C(F)(F)C(F)(F)C(F)(F)C(F)(F)C(F)(F)F

>  <INCHI_STRING>
InChI=1S/C8HF17O3S.K/c9-1(10,3(13,14)5(17,18)7(21,22)23)2(11,12)4(15,16)6(19,20)8(24,25)29(26,27)28;/h(H,26,27,28);/q;+1/p-1


>  <MOLECULAR_FORMULA>
C8F17KO3S

>  <AVERAGE_MASS>
538.22

>  <MONOISOTOPIC_MASS>
537.8933753

>  <MOL_FILE>
MOL_FILE

$$$$

  -INDIGO-02112615072D

 15 14  0  0  0  0  0  0  0  0999 V2000
    4.9775   -1.8219    0.0000 F   0  0  0  0  0  0  0  0  0  0  0  0
    6.5175    0.8454    0.0000 F   0  0  0  0  0  0  0  0  0  0  0  0
   10.3124    0.8454    0.0000 F   0  0  0  0  0  0  0  0  0  0  0  0
   11.8524   -1.8219    0.0000 F   0  0  0  0  0  0  0  0  0  0  0  0
    3.0800   -0.4881    0.0000 F   0  0  0  0  0  0  0  0  0  0  0  0
    4.4137    1.8219    0.0000 F   0  0  0  0  0  0  0  0  0  0  0  0
   13.7497   -0.4881    0.0000 F   0  0  0  0  0  0  0  0  0  0  0  0
   12.4161    1.8219    0.0000 F   0  0  0  0  0  0  0  0  0  0  0  0
    8.4149   -0.4881    0.0000 O   0  0  0  0  0  0  0  0  0  0  0  0
    7.0812   -1.2581    0.0000 C   0  0  0  0  0  0  0  0  0  0  0  0
    9.7485   -1.2581    0.0000 C   0  0  0  0  0  0  0  0  0  0  0  0
   11.0824   -0.4881    0.0000 C   0  0  0  0  0  0  0  0  0  0  0  0
    5.7475   -0.4881    0.0000 C   0  0  0  0  0  0  0  0  0  0  0  0
    4.4137    0.2819    0.0000 C   0  0  0  0  0  0  0  0  0  0  0  0
   12.4161    0.2819    0.0000 C   0  0  0  0  0  0  0  0  0  0  0  0
  1 13  1  0  0  0  0
  2 13  1  0  0  0  0
  3 12  1  0  0  0  0
  4 12  1  0  0  0  0
  5 14  1  0  0  0  0
  6 14  1  0  0  0  0
  7 15  1  0  0  0  0
  8 15  1  0  0  0  0
  9 10  1  0  0  0  0
  9 11  1  0  0  0  0
 10 13  1  0  0  0  0
 11 12  1  0  0  0  0
 12 15  1  0  0  0  0
 13 14  1  0  0  0  0
M  END
>  <INPUT>
DTXSID60510796

>  <FOUND_BY>
DSSTox_Substance_Id

>  <DTXSID>
DTXSID60510796

>  <PREFERRED_NAME>
2,2,3,3-Tetrafluoropropyl ether

>  <CASRN>
82914-35-0

>  <INCHIKEY>
JCSRVIQQOQNBKC-UHFFFAOYSA-N

>  <IUPAC_NAME>
1,1,2,2-Tetrafluoro-3-(2,2,3,3-tetrafluoropropoxy)propane

>  <SMILES>
FC(F)C(F)(F)COCC(F)(F)C(F)F

>  <INCHI_STRING>
InChI=1S/C6H6F8O/c7-3(8)5(11,12)1-15-2-6(13,14)4(9)10/h3-4H,1-2H2

>  <MOLECULAR_FORMULA>
C6H6F8O

>  <AVERAGE_MASS>
246.1

>  <MONOISOTOPIC_MASS>
246.029090117

>  <MOL_FILE>
MOL_FILE

$$$$

  -INDIGO-02112615072D

 25 24  0  0  0  0  0  0  0  0999 V2000
    5.2407   -2.3100    0.0000 P   0  0  0  0  0  0  0  0  0  0  0  0
    9.8056    0.5637    0.0000 F   0  0  0  0  0  0  0  0  0  0  0  0
   11.3456   -2.1037    0.0000 F   0  0  0  0  0  0  0  0  0  0  0  0
   11.1391    1.3337    0.0000 F   0  0  0  0  0  0  0  0  0  0  0  0
   12.6793   -1.3337    0.0000 F   0  0  0  0  0  0  0  0  0  0  0  0
    8.4717   -0.2065    0.0000 F   0  0  0  0  0  0  0  0  0  0  0  0
   10.0117   -2.8737    0.0000 F   0  0  0  0  0  0  0  0  0  0  0  0
   12.4729    2.1037    0.0000 F   0  0  0  0  0  0  0  0  0  0  0  0
   14.0129   -0.5637    0.0000 F   0  0  0  0  0  0  0  0  0  0  0  0
   15.3466    0.2065    0.0000 F   0  0  0  0  0  0  0  0  0  0  0  0
   13.8066    2.8737    0.0000 F   0  0  0  0  0  0  0  0  0  0  0  0
   17.2441    3.0800    0.0000 F   0  0  0  0  0  0  0  0  0  0  0  0
   16.6803    0.9765    0.0000 F   0  0  0  0  0  0  0  0  0  0  0  0
   15.1403    3.6437    0.0000 F   0  0  0  0  0  0  0  0  0  0  0  0
    3.9069   -3.0800    0.0000 O   0  0  0  0  0  0  0  0  0  0  0  0
    4.4707   -0.9765    0.0000 O   0  0  0  0  0  0  0  0  0  0  0  0
    6.0107   -3.6437    0.0000 O   0  0  0  0  0  0  0  0  0  0  0  0
   10.5756   -0.7700    0.0000 C   0  0  0  0  0  0  0  0  0  0  0  0
   11.9091    0.0000    0.0000 C   0  0  0  0  0  0  0  0  0  0  0  0
    9.2417   -1.5400    0.0000 C   0  0  0  0  0  0  0  0  0  0  0  0
   13.2429    0.7700    0.0000 C   0  0  0  0  0  0  0  0  0  0  0  0
    7.9081   -2.3100    0.0000 C   0  0  0  0  0  0  0  0  0  0  0  0
   14.5766    1.5400    0.0000 C   0  0  0  0  0  0  0  0  0  0  0  0
    6.5744   -1.5400    0.0000 C   0  0  0  0  0  0  0  0  0  0  0  0
   15.9103    2.3100    0.0000 C   0  0  0  0  0  0  0  0  0  0  0  0
  1 15  1  0  0  0  0
  1 16  1  0  0  0  0
  1 17  2  0  0  0  0
  1 24  1  0  0  0  0
  2 18  1  0  0  0  0
  3 18  1  0  0  0  0
  4 19  1  0  0  0  0
  5 19  1  0  0  0  0
  6 20  1  0  0  0  0
  7 20  1  0  0  0  0
  8 21  1  0  0  0  0
  9 21  1  0  0  0  0
 10 23  1  0  0  0  0
 11 23  1  0  0  0  0
 12 25  1  0  0  0  0
 13 25  1  0  0  0  0
 14 25  1  0  0  0  0
 18 19  1  0  0  0  0
 18 20  1  0  0  0  0
 19 21  1  0  0  0  0
 20 22  1  0  0  0  0
 21 23  1  0  0  0  0
 22 24  1  0  0  0  0
 23 25  1  0  0  0  0
M  END
>  <INPUT>
DTXSID20179883

>  <FOUND_BY>
DSSTox_Substance_Id

>  <DTXSID>
DTXSID20179883

>  <PREFERRED_NAME>
2-(Perfluorohexyl)ethylphosphonic acid

>  <CASRN>
252237-40-4

>  <INCHIKEY>
DEXIXSRZQUFPIK-UHFFFAOYSA-N

>  <IUPAC_NAME>
(3,3,4,4,5,5,6,6,7,7,8,8,8-Tridecafluorooctyl)phosphonic acid

>  <SMILES>
OP(O)(=O)CCC(F)(F)C(F)(F)C(F)(F)C(F)(F)C(F)(F)C(F)(F)F

>  <INCHI_STRING>
InChI=1S/C8H6F13O3P/c9-3(10,1-2-25(22,23)24)4(11,12)5(13,14)6(15,16)7(17,18)8(19,20)21/h1-2H2,(H2,22,23,24)

>  <MOLECULAR_FORMULA>
C8H6F13O3P

>  <AVERAGE_MASS>
428.086

>  <MONOISOTOPIC_MASS>
427.98469717

>  <MOL_FILE>
MOL_FILE

$$$$

  -INDIGO-02112615072D

 12 11  0  0  0  0  0  0  0  0999 V2000
    3.0800    1.2581    0.0000 F   0  0  0  0  0  0  0  0  0  0  0  0
    3.6437   -0.8454    0.0000 F   0  0  0  0  0  0  0  0  0  0  0  0
    5.1837    1.8219    0.0000 F   0  0  0  0  0  0  0  0  0  0  0  0
   11.0824    1.2581    0.0000 F   0  0  0  0  0  0  0  0  0  0  0  0
   10.5187   -0.8454    0.0000 F   0  0  0  0  0  0  0  0  0  0  0  0
    8.9785    1.8219    0.0000 F   0  0  0  0  0  0  0  0  0  0  0  0
    8.4149   -1.8219    0.0000 O   0  0  0  0  0  0  0  0  0  0  0  0
    7.0812    0.4881    0.0000 N   0  0  0  0  0  0  0  0  0  0  0  0
    5.7475   -0.2819    0.0000 C   0  0  0  0  0  0  0  0  0  0  0  0
    4.4137    0.4881    0.0000 C   0  0  0  0  0  0  0  0  0  0  0  0
    8.4149   -0.2819    0.0000 C   0  0  0  0  0  0  0  0  0  0  0  0
    9.7485    0.4881    0.0000 C   0  0  0  0  0  0  0  0  0  0  0  0
  1 10  1  0  0  0  0
  2 10  1  0  0  0  0
  3 10  1  0  0  0  0
  4 12  1  0  0  0  0
  5 12  1  0  0  0  0
  6 12  1  0  0  0  0
  7 11  2  0  0  0  0
  8  9  1  0  0  0  0
  8 11  1  0  0  0  0
  9 10  1  0  0  0  0
 11 12  1  0  0  0  0
M  END
>  <INPUT>
DTXSID70193675

>  <FOUND_BY>
DSSTox_Substance_Id

>  <DTXSID>
DTXSID70193675

>  <PREFERRED_NAME>
2,2,2-Trifluoro-N-(2,2,2-trifluoroethyl)acetamide

>  <CASRN>
407-37-4

>  <INCHIKEY>
OVRXBUODRQZROG-UHFFFAOYSA-N

>  <IUPAC_NAME>
2,2,2-Trifluoro-N-(2,2,2-trifluoroethyl)acetamide

>  <SMILES>
FC(F)(F)CNC(=O)C(F)(F)F

>  <INCHI_STRING>
InChI=1S/C4H3F6NO/c5-3(6,7)1-11-2(12)4(8,9)10/h1H2,(H,11,12)

>  <MOLECULAR_FORMULA>
C4H3F6NO

>  <AVERAGE_MASS>
195.064

>  <MONOISOTOPIC_MASS>
195.011882699

>  <MOL_FILE>
MOL_FILE

$$$$

  -INDIGO-02112615072D

 14 13  0  0  0  0  0  0  0  0999 V2000
    6.8493    0.0295    0.0000 F   0  0  0  0  0  0  0  0  0  0  0  0
    9.5167    1.5695    0.0000 F   0  0  0  0  0  0  0  0  0  0  0  0
    7.6193   -1.3042    0.0000 F   0  0  0  0  0  0  0  0  0  0  0  0
   10.2867    0.2358    0.0000 F   0  0  0  0  0  0  0  0  0  0  0  0
    4.3330    2.1332    0.0000 F   0  0  0  0  0  0  0  0  0  0  0  0
    5.8730    0.5932    0.0000 F   0  0  0  0  0  0  0  0  0  0  0  0
    5.8730    3.6732    0.0000 F   0  0  0  0  0  0  0  0  0  0  0  0
    7.4130    2.1332    0.0000 O   0  0  0  0  0  0  0  0  0  0  0  0
   11.2630   -1.8678    0.0000 O   0  0  0  0  0  0  0  0  0  0  0  0
    8.9530   -3.2015    0.0000 O   0  0  0  0  0  0  0  0  0  0  0  0
    8.1830    0.7995    0.0000 C   0  0  0  0  0  0  0  0  0  0  0  0
    8.9530   -0.5342    0.0000 C   0  0  0  0  0  0  0  0  0  0  0  0
    9.7230   -1.8678    0.0000 C   0  0  0  0  0  0  0  0  0  0  0  0
    5.8730    2.1332    0.0000 C   0  0  0  0  0  0  0  0  0  0  0  0
  1 11  1  0  0  0  0
  2 11  1  0  0  0  0
  3 12  1  0  0  0  0
  4 12  1  0  0  0  0
  5 14  1  0  0  0  0
  6 14  1  0  0  0  0
  7 14  1  0  0  0  0
  8 11  1  0  0  0  0
  8 14  1  0  0  0  0
  9 13  1  0  0  0  0
 10 13  2  0  0  0  0
 11 12  1  0  0  0  0
 12 13  1  0  0  0  0
M  END
>  <INPUT>
DTXSID70191136

>  <FOUND_BY>
DSSTox_Substance_Id

>  <DTXSID>
DTXSID70191136

>  <PREFERRED_NAME>
Perfluoro-3-methoxypropanoic acid

>  <CASRN>
377-73-1

>  <INCHIKEY>
AGIMOOYNBDLMJV-UHFFFAOYSA-N

>  <IUPAC_NAME>
2,2,3,3-Tetrafluoro-3-(trifluoromethoxy)propanoic acid

>  <SMILES>
OC(=O)C(F)(F)C(F)(F)OC(F)(F)F

>  <INCHI_STRING>
InChI=1S/C4HF7O3/c5-2(6,1(12)13)3(7,8)14-4(9,10)11/h(H,12,13)

>  <MOLECULAR_FORMULA>
C4HF7O3

>  <AVERAGE_MASS>
230.038

>  <MONOISOTOPIC_MASS>
229.981391033

>  <MOL_FILE>
MOL_FILE

$$$$

  -INDIGO-02112615072D

 20 20  0  0  0  0  0  0  0  0999 V2000
    5.1837    2.2070    0.0000 F   0  0  0  0  0  0  0  0  0  0  0  0
    8.8275    0.1032    0.0000 F   0  0  0  0  0  0  0  0  0  0  0  0
    8.0575    1.4368    0.0000 F   0  0  0  0  0  0  0  0  0  0  0  0
    3.0800    0.1032    0.0000 F   0  0  0  0  0  0  0  0  0  0  0  0
    3.8500    1.4368    0.0000 F   0  0  0  0  0  0  0  0  0  0  0  0
    3.8500   -2.7705    0.0000 F   0  0  0  0  0  0  0  0  0  0  0  0
    3.0800   -1.4368    0.0000 F   0  0  0  0  0  0  0  0  0  0  0  0
    8.0575   -2.7705    0.0000 F   0  0  0  0  0  0  0  0  0  0  0  0
    8.8275   -1.4368    0.0000 F   0  0  0  0  0  0  0  0  0  0  0  0
    5.1837   -3.5405    0.0000 F   0  0  0  0  0  0  0  0  0  0  0  0
    6.7237   -3.5405    0.0000 F   0  0  0  0  0  0  0  0  0  0  0  0
    5.9537    3.5405    0.0000 F   0  0  0  0  0  0  0  0  0  0  0  0
    8.0575    2.9770    0.0000 O   0  0  0  0  0  0  0  0  0  0  0  0
    5.9537    0.8732    0.0000 C   0  0  0  0  0  0  0  0  0  0  0  0
    4.6202    0.1032    0.0000 C   0  0  0  0  0  0  0  0  0  0  0  0
    7.2875    0.1032    0.0000 C   0  0  0  0  0  0  0  0  0  0  0  0
    4.6202   -1.4368    0.0000 C   0  0  0  0  0  0  0  0  0  0  0  0
    7.2875   -1.4368    0.0000 C   0  0  0  0  0  0  0  0  0  0  0  0
    5.9537   -2.2070    0.0000 C   0  0  0  0  0  0  0  0  0  0  0  0
    6.7237    2.2070    0.0000 C   0  0  0  0  0  0  0  0  0  0  0  0
  1 14  1  0  0  0  0
  2 16  1  0  0  0  0
  3 16  1  0  0  0  0
  4 15  1  0  0  0  0
  5 15  1  0  0  0  0
  6 17  1  0  0  0  0
  7 17  1  0  0  0  0
  8 18  1  0  0  0  0
  9 18  1  0  0  0  0
 10 19  1  0  0  0  0
 11 19  1  0  0  0  0
 13 20  2  0  0  0  0
 14 15  1  0  0  0  0
 14 16  1  0  0  0  0
 14 20  1  0  0  0  0
 15 17  1  0  0  0  0
 16 18  1  0  0  0  0
 17 19  1  0  0  0  0
 18 19  1  0  0  0  0
 12 20  1  0  0  0  0
M  END
>  <INPUT>
DTXSID80379781

>  <FOUND_BY>
DSSTox_Substance_Id

>  <DTXSID>
DTXSID80379781

>  <PREFERRED_NAME>
Perfluorocyclohexanecarbonyl fluoride

>  <CASRN>
6588-63-2

>  <INCHIKEY>
HDVGMDBHTBNCLT-UHFFFAOYSA-N

>  <IUPAC_NAME>
1,2,2,3,3,4,4,5,5,6,6-Undecafluorocyclohexane-1-carbonyl fluoride

>  <SMILES>
FC(=O)C1(F)C(F)(F)C(F)(F)C(F)(F)C(F)(F)C1(F)F

>  <INCHI_STRING>
InChI=1S/C7F12O/c8-1(20)2(9)3(10,11)5(14,15)7(18,19)6(16,17)4(2,12)13


>  <MOLECULAR_FORMULA>
C7F12O

>  <AVERAGE_MASS>
328.057

>  <MONOISOTOPIC_MASS>
327.975752576

>  <MOL_FILE>
MOL_FILE

$$$$

  -INDIGO-02112615072D

 29 29  0  0  0  0  0  0  0  0999 V2000
    3.6274    2.5902    0.0000 F   0  0  0  0  0  0  0  0  0  0  0  0
    3.6274   -0.4898    0.0000 F   0  0  0  0  0  0  0  0  0  0  0  0
    2.0874    2.5902    0.0000 F   0  0  0  0  0  0  0  0  0  0  0  0
    2.0874   -0.4898    0.0000 F   0  0  0  0  0  0  0  0  0  0  0  0
    5.1674    2.5902    0.0000 F   0  0  0  0  0  0  0  0  0  0  0  0
    5.1674   -0.4898    0.0000 F   0  0  0  0  0  0  0  0  0  0  0  0
    0.5474    2.5902    0.0000 F   0  0  0  0  0  0  0  0  0  0  0  0
    0.5474   -0.4898    0.0000 F   0  0  0  0  0  0  0  0  0  0  0  0
   -0.9924    2.5902    0.0000 F   0  0  0  0  0  0  0  0  0  0  0  0
   -0.9924   -0.4898    0.0000 F   0  0  0  0  0  0  0  0  0  0  0  0
   -4.0724    1.0502    0.0000 F   0  0  0  0  0  0  0  0  0  0  0  0
   -2.5324    2.5902    0.0000 F   0  0  0  0  0  0  0  0  0  0  0  0
   -2.5324   -0.4898    0.0000 F   0  0  0  0  0  0  0  0  0  0  0  0
   14.4076   -1.6171    0.0000 O   0  0  0  0  0  0  0  0  0  0  0  0
    3.6274    1.0502    0.0000 C   0  0  0  0  0  0  0  0  0  0  0  0
    2.0874    1.0502    0.0000 C   0  0  0  0  0  0  0  0  0  0  0  0
    5.1674    1.0502    0.0000 C   0  0  0  0  0  0  0  0  0  0  0  0
    6.7074    1.0502    0.0000 C   0  0  0  0  0  0  0  0  0  0  0  0
    0.5474    1.0502    0.0000 C   0  0  0  0  0  0  0  0  0  0  0  0
    7.4776   -0.2835    0.0000 C   0  0  0  0  0  0  0  0  0  0  0  0
   -0.9924    1.0502    0.0000 C   0  0  0  0  0  0  0  0  0  0  0  0
    9.0174   -0.2835    0.0000 C   0  0  0  0  0  0  0  0  0  0  0  0
   -2.5324    1.0502    0.0000 C   0  0  0  0  0  0  0  0  0  0  0  0
    9.7874   -1.6171    0.0000 C   0  0  0  0  0  0  0  0  0  0  0  0
    9.7874    1.0502    0.0000 C   0  0  0  0  0  0  0  0  0  0  0  0
   11.3274   -1.6171    0.0000 C   0  0  0  0  0  0  0  0  0  0  0  0
   11.3274    1.0502    0.0000 C   0  0  0  0  0  0  0  0  0  0  0  0
   12.0976   -0.2835    0.0000 C   0  0  0  0  0  0  0  0  0  0  0  0
   13.6374   -0.2835    0.0000 C   0  0  0  0  0  0  0  0  0  0  0  0
  1 15  1  0  0  0  0
  2 15  1  0  0  0  0
  3 16  1  0  0  0  0
  4 16  1  0  0  0  0
  5 17  1  0  0  0  0
  6 17  1  0  0  0  0
  7 19  1  0  0  0  0
  8 19  1  0  0  0  0
  9 21  1  0  0  0  0
 10 21  1  0  0  0  0
 11 23  1  0  0  0  0
 12 23  1  0  0  0  0
 13 23  1  0  0  0  0
 14 29  1  0  0  0  0
 15 16  1  0  0  0  0
 15 17  1  0  0  0  0
 16 19  1  0  0  0  0
 17 18  1  0  0  0  0
 18 20  1  0  0  0  0
 19 21  1  0  0  0  0
 20 22  1  0  0  0  0
 21 23  1  0  0  0  0
 22 24  2  0  0  0  0
 22 25  1  0  0  0  0
 24 26  1  0  0  0  0
 25 27  2  0  0  0  0
 26 28  2  0  0  0  0
 27 28  1  0  0  0  0
 28 29  1  0  0  0  0
M  END
>  <INPUT>
DTXSID90583413

>  <FOUND_BY>
DSSTox_Substance_Id

>  <DTXSID>
DTXSID90583413

>  <PREFERRED_NAME>
4-((Perfluorohexyl)ethyl)phenylmethanol

>  <CASRN>
356055-76-0

>  <INCHIKEY>
ZLZILVFJEAYPNQ-UHFFFAOYSA-N

>  <IUPAC_NAME>
[4-(3,3,4,4,5,5,6,6,7,7,8,8,8-Tridecafluorooctyl)phenyl]methanol

>  <SMILES>
OCC1=CC=C(CCC(F)(F)C(F)(F)C(F)(F)C(F)(F)C(F)(F)C(F)(F)F)C=C1

>  <INCHI_STRING>
InChI=1S/C15H11F13O/c16-10(17,6-5-8-1-3-9(7-29)4-2-8)11(18,19)12(20,21)13(22,23)14(24,25)15(26,27)28/h1-4,29H,5-7H2


>  <MOLECULAR_FORMULA>
C15H11F13O

>  <AVERAGE_MASS>
454.231

>  <MONOISOTOPIC_MASS>
454.060231093

>  <MOL_FILE>
MOL_FILE

$$$$

  -INDIGO-02112615072D

 14 14  0  0  0  0  0  0  0  0999 V2000
    7.4800   -2.2585    0.0000 F   0  0  0  0  0  0  0  0  0  0  0  0
    7.4800    0.8216    0.0000 F   0  0  0  0  0  0  0  0  0  0  0  0
    5.9400   -2.2585    0.0000 F   0  0  0  0  0  0  0  0  0  0  0  0
    5.9399    0.8216    0.0000 F   0  0  0  0  0  0  0  0  0  0  0  0
    2.8599   -0.7185    0.0000 F   0  0  0  0  0  0  0  0  0  0  0  0
    4.4000   -2.2585    0.0000 F   0  0  0  0  0  0  0  0  0  0  0  0
    4.3999    0.8216    0.0000 F   0  0  0  0  0  0  0  0  0  0  0  0
    9.7901    2.1554    0.0000 O   0  0  0  0  0  0  0  0  0  0  0  0
    9.7899    0.6152    0.0000 C   0  0  0  0  0  0  0  0  0  0  0  0
    9.0201   -0.7184    0.0000 C   0  0  0  0  0  0  0  0  0  0  0  0
    7.4800   -0.7184    0.0000 C   0  0  0  0  0  0  0  0  0  0  0  0
   11.1238    1.3853    0.0000 C   0  0  0  0  0  0  0  0  0  0  0  0
    5.9400   -0.7184    0.0000 C   0  0  0  0  0  0  0  0  0  0  0  0
    4.3999   -0.7185    0.0000 C   0  0  0  0  0  0  0  0  0  0  0  0
  1 11  1  0  0  0  0
  2 11  1  0  0  0  0
  3 13  1  0  0  0  0
  4 13  1  0  0  0  0
  5 14  1  0  0  0  0
  6 14  1  0  0  0  0
  7 14  1  0  0  0  0
  8  9  1  0  0  0  0
  8 12  1  0  0  0  0
  9 10  1  0  0  0  0
  9 12  1  0  0  0  0
 10 11  1  0  0  0  0
 11 13  1  0  0  0  0
 13 14  1  0  0  0  0
M  END
>  <INPUT>
DTXSID10379254

>  <FOUND_BY>
DSSTox_Substance_Id

>  <DTXSID>
DTXSID10379254

>  <PREFERRED_NAME>
1H,1H-Heptafluorobutyl epoxide

>  <CASRN>
1765-92-0

>  <INCHIKEY>
YXNWXQYDINSHJC-UHFFFAOYNA-N

>  <IUPAC_NAME>
2-(2,2,3,3,4,4,4-Heptafluorobutyl)oxirane

>  <SMILES>
FC(F)(F)C(F)(F)C(F)(F)CC1CO1

>  <INCHI_STRING>
InChI=1/C6H5F7O/c7-4(8,1-3-2-14-3)5(9,10)6(11,12)13/h3H,1-2H2


>  <MOLECULAR_FORMULA>
C6H5F7O

>  <AVERAGE_MASS>
226.094

>  <MONOISOTOPIC_MASS>
226.022861922

>  <MOL_FILE>
MOL_FILE

$$$$

  -INDIGO-02112615072D

 25 24  0  0  0  0  0  0  0  0999 V2000
   15.0834    1.8219    0.0000 Cl  0  0  0  0  0  0  0  0  0  0  0  0
    7.6449    0.8454    0.0000 F   0  0  0  0  0  0  0  0  0  0  0  0
    9.1849   -1.8219    0.0000 F   0  0  0  0  0  0  0  0  0  0  0  0
    8.9785    1.6154    0.0000 F   0  0  0  0  0  0  0  0  0  0  0  0
   10.5187   -1.0519    0.0000 F   0  0  0  0  0  0  0  0  0  0  0  0
    6.3112    0.0754    0.0000 F   0  0  0  0  0  0  0  0  0  0  0  0
    7.8512   -2.5919    0.0000 F   0  0  0  0  0  0  0  0  0  0  0  0
   11.8524   -0.2819    0.0000 F   0  0  0  0  0  0  0  0  0  0  0  0
   10.3124    2.3856    0.0000 F   0  0  0  0  0  0  0  0  0  0  0  0
    4.9775   -0.6946    0.0000 F   0  0  0  0  0  0  0  0  0  0  0  0
    6.5175   -3.3619    0.0000 F   0  0  0  0  0  0  0  0  0  0  0  0
   13.1861    0.4881    0.0000 F   0  0  0  0  0  0  0  0  0  0  0  0
   11.6461    3.1556    0.0000 F   0  0  0  0  0  0  0  0  0  0  0  0
    3.0800   -3.5683    0.0000 F   0  0  0  0  0  0  0  0  0  0  0  0
    3.6437   -1.4646    0.0000 F   0  0  0  0  0  0  0  0  0  0  0  0
    5.1837   -4.1319    0.0000 F   0  0  0  0  0  0  0  0  0  0  0  0
   13.7497    4.1319    0.0000 O   0  0  0  0  0  0  0  0  0  0  0  0
    8.4149   -0.4881    0.0000 C   0  0  0  0  0  0  0  0  0  0  0  0
    9.7485    0.2819    0.0000 C   0  0  0  0  0  0  0  0  0  0  0  0
    7.0812   -1.2581    0.0000 C   0  0  0  0  0  0  0  0  0  0  0  0
   11.0824    1.0519    0.0000 C   0  0  0  0  0  0  0  0  0  0  0  0
    5.7475   -2.0281    0.0000 C   0  0  0  0  0  0  0  0  0  0  0  0
   12.4161    1.8219    0.0000 C   0  0  0  0  0  0  0  0  0  0  0  0
    4.4137   -2.7983    0.0000 C   0  0  0  0  0  0  0  0  0  0  0  0
   13.7497    2.5919    0.0000 C   0  0  0  0  0  0  0  0  0  0  0  0
  1 25  1  0  0  0  0
  2 18  1  0  0  0  0
  3 18  1  0  0  0  0
  4 19  1  0  0  0  0
  5 19  1  0  0  0  0
  6 20  1  0  0  0  0
  7 20  1  0  0  0  0
  8 21  1  0  0  0  0
  9 21  1  0  0  0  0
 10 22  1  0  0  0  0
 11 22  1  0  0  0  0
 12 23  1  0  0  0  0
 13 23  1  0  0  0  0
 14 24  1  0  0  0  0
 15 24  1  0  0  0  0
 16 24  1  0  0  0  0
 17 25  2  0  0  0  0
 18 19  1  0  0  0  0
 18 20  1  0  0  0  0
 19 21  1  0  0  0  0
 20 22  1  0  0  0  0
 21 23  1  0  0  0  0
 22 24  1  0  0  0  0
 23 25  1  0  0  0  0
M  END
>  <INPUT>
DTXSID40187142

>  <FOUND_BY>
DSSTox_Substance_Id

>  <DTXSID>
DTXSID40187142

>  <PREFERRED_NAME>
Pentadecafluorooctanoyl chloride

>  <CASRN>
335-64-8

>  <INCHIKEY>
AQQBRCXWZZAFOK-UHFFFAOYSA-N

>  <IUPAC_NAME>
Pentadecafluorooctanoyl chloride

>  <SMILES>
FC(F)(F)C(F)(F)C(F)(F)C(F)(F)C(F)(F)C(F)(F)C(F)(F)C(Cl)=O

>  <INCHI_STRING>
InChI=1S/C8ClF15O/c9-1(25)2(10,11)3(12,13)4(14,15)5(16,17)6(18,19)7(20,21)8(22,23)24

>  <MOLECULAR_FORMULA>
C8ClF15O

>  <AVERAGE_MASS>
432.51

>  <MONOISOTOPIC_MASS>
431.9398148

>  <MOL_FILE>
MOL_FILE

$$$$

  -INDIGO-02112615072D

 19 18  0  0  0  0  0  0  0  0999 V2000
    2.8737   -3.8500    0.0000 O   0  0  0  0  0  0  0  0  0  0  0  0
    1.5400   -3.0800    0.0000 C   0  0  0  0  0  0  0  0  0  0  0  0
    0.2063   -3.8500    0.0000 O   0  0  0  0  0  0  0  0  0  0  0  0
    0.2063   -5.3900    0.0000 C   0  0  0  0  0  0  0  0  0  0  0  0
    1.5400   -6.1600    0.0000 O   0  0  0  0  0  0  0  0  0  0  0  0
   -1.1274   -6.1600    0.0000 C   0  0  0  0  0  0  0  0  0  0  0  0
   -0.3574   -7.4937    0.0000 F   0  0  0  0  0  0  0  0  0  0  0  0
   -1.8974   -4.8263    0.0000 F   0  0  0  0  0  0  0  0  0  0  0  0
   -2.4610   -6.9300    0.0000 C   0  0  0  0  0  0  0  0  0  0  0  0
   -3.7947   -7.7000    0.0000 F   0  0  0  0  0  0  0  0  0  0  0  0
   -1.6910   -8.2637    0.0000 F   0  0  0  0  0  0  0  0  0  0  0  0
   -3.2310   -5.5963    0.0000 F   0  0  0  0  0  0  0  0  0  0  0  0
    1.5400   -1.5400    0.0000 C   0  0  0  0  0  0  0  0  0  0  0  0
    3.0800   -1.5400    0.0000 F   0  0  0  0  0  0  0  0  0  0  0  0
    0.0000   -1.5400    0.0000 F   0  0  0  0  0  0  0  0  0  0  0  0
    1.5400    0.0000    0.0000 C   0  0  0  0  0  0  0  0  0  0  0  0
    1.5400    1.5400    0.0000 F   0  0  0  0  0  0  0  0  0  0  0  0
    3.0800    0.0000    0.0000 F   0  0  0  0  0  0  0  0  0  0  0  0
    0.0000    0.0000    0.0000 F   0  0  0  0  0  0  0  0  0  0  0  0
  1  2  2  0  0  0  0
  2  3  1  0  0  0  0
  3  4  1  0  0  0  0
  4  5  2  0  0  0  0
  4  6  1  0  0  0  0
  6  7  1  0  0  0  0
  6  8  1  0  0  0  0
  6  9  1  0  0  0  0
  9 10  1  0  0  0  0
  9 11  1  0  0  0  0
  9 12  1  0  0  0  0
  2 13  1  0  0  0  0
 13 14  1  0  0  0  0
 13 15  1  0  0  0  0
 13 16  1  0  0  0  0
 16 17  1  0  0  0  0
 16 18  1  0  0  0  0
 16 19  1  0  0  0  0
M  END
>  <INPUT>
DTXSID70870515

>  <FOUND_BY>
DSSTox_Substance_Id

>  <DTXSID>
DTXSID70870515

>  <PREFERRED_NAME>
Pentafluoropropanoic anhydride

>  <CASRN>
356-42-3

>  <INCHIKEY>
XETRHNFRKCNWAJ-UHFFFAOYSA-N

>  <IUPAC_NAME>
Pentafluoropropanoic anhydride

>  <SMILES>
FC(F)(F)C(F)(F)C(=O)OC(=O)C(F)(F)C(F)(F)F

>  <INCHI_STRING>
InChI=1S/C6F10O3/c7-3(8,5(11,12)13)1(17)19-2(18)4(9,10)6(14,15)16

>  <MOLECULAR_FORMULA>
C6F10O3

>  <AVERAGE_MASS>
310.047

>  <MONOISOTOPIC_MASS>
309.96877549

>  <MOL_FILE>
MOL_FILE

$$$$

  -INDIGO-02112615072D

 31 30  0  0  0  0  0  0  0  0999 V2000
    0.9763   -2.1037    0.0000 F   0  0  0  0  0  0  0  0  0  0  0  0
    0.2063   -0.7700    0.0000 C   0  0  0  0  0  0  0  0  0  0  0  0
   -0.5637    0.5637    0.0000 F   0  0  0  0  0  0  0  0  0  0  0  0
   -1.1273   -1.5400    0.0000 N   0  0  0  0  0  0  0  0  0  0  0  0
   -1.1273   -3.0800    0.0000 C   0  0  0  0  0  0  0  0  0  0  0  0
    0.4127   -3.0800    0.0000 F   0  0  0  0  0  0  0  0  0  0  0  0
   -2.6673   -3.0800    0.0000 F   0  0  0  0  0  0  0  0  0  0  0  0
   -1.1273   -4.6200    0.0000 C   0  0  0  0  0  0  0  0  0  0  0  0
    0.4127   -4.6200    0.0000 F   0  0  0  0  0  0  0  0  0  0  0  0
   -2.6673   -4.6200    0.0000 F   0  0  0  0  0  0  0  0  0  0  0  0
   -1.1273   -6.1600    0.0000 C   0  0  0  0  0  0  0  0  0  0  0  0
   -1.1273   -7.7000    0.0000 F   0  0  0  0  0  0  0  0  0  0  0  0
    0.4127   -6.1600    0.0000 F   0  0  0  0  0  0  0  0  0  0  0  0
   -2.6673   -6.1600    0.0000 F   0  0  0  0  0  0  0  0  0  0  0  0
   -2.4610   -0.7700    0.0000 C   0  0  0  0  0  0  0  0  0  0  0  0
   -1.6910    0.5637    0.0000 F   0  0  0  0  0  0  0  0  0  0  0  0
   -3.2310   -2.1037    0.0000 F   0  0  0  0  0  0  0  0  0  0  0  0
   -3.7947    0.0000    0.0000 C   0  0  0  0  0  0  0  0  0  0  0  0
   -3.0247    1.3337    0.0000 F   0  0  0  0  0  0  0  0  0  0  0  0
   -4.5647   -1.3337    0.0000 F   0  0  0  0  0  0  0  0  0  0  0  0
   -5.1285    0.7700    0.0000 C   0  0  0  0  0  0  0  0  0  0  0  0
   -6.4620    1.5400    0.0000 F   0  0  0  0  0  0  0  0  0  0  0  0
   -4.3585    2.1037    0.0000 F   0  0  0  0  0  0  0  0  0  0  0  0
   -5.8985   -0.5637    0.0000 F   0  0  0  0  0  0  0  0  0  0  0  0
    1.5400    0.0000    0.0000 C   0  0  0  0  0  0  0  0  0  0  0  0
    2.3100   -1.3337    0.0000 F   0  0  0  0  0  0  0  0  0  0  0  0
    0.7700    1.3337    0.0000 F   0  0  0  0  0  0  0  0  0  0  0  0
    2.8737    0.7700    0.0000 C   0  0  0  0  0  0  0  0  0  0  0  0
    3.6437   -0.5637    0.0000 F   0  0  0  0  0  0  0  0  0  0  0  0
    2.1037    2.1037    0.0000 F   0  0  0  0  0  0  0  0  0  0  0  0
    4.2073    1.5400    0.0000 F   0  0  0  0  0  0  0  0  0  0  0  0
  1  2  1  0  0  0  0
  2  3  1  0  0  0  0
  2  4  1  0  0  0  0
  4  5  1  0  0  0  0
  5  6  1  0  0  0  0
  5  7  1  0  0  0  0
  5  8  1  0  0  0  0
  8  9  1  0  0  0  0
  8 10  1  0  0  0  0
  8 11  1  0  0  0  0
 11 12  1  0  0  0  0
 11 13  1  0  0  0  0
 11 14  1  0  0  0  0
  4 15  1  0  0  0  0
 15 16  1  0  0  0  0
 15 17  1  0  0  0  0
 15 18  1  0  0  0  0
 18 19  1  0  0  0  0
 18 20  1  0  0  0  0
 18 21  1  0  0  0  0
 21 22  1  0  0  0  0
 21 23  1  0  0  0  0
 21 24  1  0  0  0  0
  2 25  1  0  0  0  0
 25 26  1  0  0  0  0
 25 27  1  0  0  0  0
 25 28  1  0  0  0  0
 28 29  1  0  0  0  0
 28 30  1  0  0  0  0
 28 31  1  0  0  0  0
M  END
>  <INPUT>
DTXSID9059834

>  <FOUND_BY>
DSSTox_Substance_Id

>  <DTXSID>
DTXSID9059834

>  <PREFERRED_NAME>
Perfluamine

>  <CASRN>
338-83-0

>  <INCHIKEY>
JAJLKEVKNDUJBG-UHFFFAOYSA-N

>  <IUPAC_NAME>
1,1,2,2,3,3,3-Heptafluoro-N,N-bis(heptafluoropropyl)propan-1-amine

>  <SMILES>
FC(F)(F)C(F)(F)C(F)(F)N(C(F)(F)C(F)(F)C(F)(F)F)C(F)(F)C(F)(F)C(F)(F)F

>  <INCHI_STRING>
InChI=1S/C9F21N/c10-1(11,4(16,17)18)7(25,26)31(8(27,28)2(12,13)5(19,20)21)9(29,30)3(14,15)6(22,23)24

>  <MOLECULAR_FORMULA>
C9F21N

>  <AVERAGE_MASS>
521.072

>  <MONOISOTOPIC_MASS>
520.969540427

>  <MOL_FILE>
MOL_FILE

$$$$

  -INDIGO-02112615072D

 15 14  0  0  0  0  0  0  0  0999 V2000
    4.2350    1.3337    0.0000 C   0  0  0  0  0  0  0  0  0  0  0  0
    3.4650    0.0000    0.0000 C   0  0  0  0  0  0  0  0  0  0  0  0
    1.9250    0.0000    0.0000 C   0  0  0  0  0  0  0  0  0  0  0  0
    0.3850    0.0000    0.0000 C   0  0  0  0  0  0  0  0  0  0  0  0
   -1.1550    0.0000    0.0000 C   0  0  0  0  0  0  0  0  0  0  0  0
   -2.6950    0.0000    0.0000 C   0  0  0  0  0  0  0  0  0  0  0  0
   -2.6950    1.5400    0.0000 F   0  0  0  0  0  0  0  0  0  0  0  0
   -2.6950   -1.5400    0.0000 F   0  0  0  0  0  0  0  0  0  0  0  0
   -4.2350    0.0000    0.0000 F   0  0  0  0  0  0  0  0  0  0  0  0
   -1.1550    1.5400    0.0000 F   0  0  0  0  0  0  0  0  0  0  0  0
   -1.1550   -1.5400    0.0000 F   0  0  0  0  0  0  0  0  0  0  0  0
    0.3850   -1.5400    0.0000 F   0  0  0  0  0  0  0  0  0  0  0  0
    0.3850    1.5400    0.0000 F   0  0  0  0  0  0  0  0  0  0  0  0
    1.9250    1.5400    0.0000 F   0  0  0  0  0  0  0  0  0  0  0  0
    1.9250   -1.5400    0.0000 F   0  0  0  0  0  0  0  0  0  0  0  0
  1  2  2  0  0  0  0
  2  3  1  0  0  0  0
  3  4  1  0  0  0  0
  3 14  1  0  0  0  0
  3 15  1  0  0  0  0
  4  5  1  0  0  0  0
  4 12  1  0  0  0  0
  4 13  1  0  0  0  0
  5  6  1  0  0  0  0
  5 10  1  0  0  0  0
  5 11  1  0  0  0  0
  6  7  1  0  0  0  0
  6  8  1  0  0  0  0
  6  9  1  0  0  0  0
M  END
>  <INPUT>
DTXSID6047575

>  <FOUND_BY>
DSSTox_Substance_Id

>  <DTXSID>
DTXSID6047575

>  <PREFERRED_NAME>
(Perfluorobutyl)ethene

>  <CASRN>
19430-93-4

>  <INCHIKEY>
GVEUEBXMTMZVSD-UHFFFAOYSA-N

>  <IUPAC_NAME>
3,3,4,4,5,5,6,6,6-Nonafluorohex-1-ene

>  <SMILES>
FC(F)(F)C(F)(F)C(F)(F)C(F)(F)C=C

>  <INCHI_STRING>
InChI=1S/C6H3F9/c1-2-3(7,8)4(9,10)5(11,12)6(13,14)15/h2H,1H2


>  <MOLECULAR_FORMULA>
C6H3F9

>  <AVERAGE_MASS>
246.076

>  <MONOISOTOPIC_MASS>
246.009103564

>  <MOL_FILE>
MOL_FILE

$$$$

  -INDIGO-02112615072D

 20 19  0  0  0  0  0  0  0  0999 V2000
    7.7000   -8.0020    0.0000 F   0  0  0  0  0  0  0  0  0  0  0  0
    6.1600   -8.0020    0.0000 C   0  0  0  0  0  0  0  0  0  0  0  0
    5.3900   -9.3358    0.0000 F   0  0  0  0  0  0  0  0  0  0  0  0
    5.3900   -6.6685    0.0000 C   0  0  0  0  0  0  0  0  0  0  0  0
    6.7237   -5.8985    0.0000 F   0  0  0  0  0  0  0  0  0  0  0  0
    4.0563   -7.4385    0.0000 F   0  0  0  0  0  0  0  0  0  0  0  0
    4.6200   -5.3347    0.0000 C   0  0  0  0  0  0  0  0  0  0  0  0
    5.9537   -4.5647    0.0000 F   0  0  0  0  0  0  0  0  0  0  0  0
    3.2863   -6.1047    0.0000 F   0  0  0  0  0  0  0  0  0  0  0  0
    3.8500   -4.0010    0.0000 C   0  0  0  0  0  0  0  0  0  0  0  0
    5.1837   -3.2310    0.0000 F   0  0  0  0  0  0  0  0  0  0  0  0
    2.5163   -4.7710    0.0000 F   0  0  0  0  0  0  0  0  0  0  0  0
    3.0800   -2.6673    0.0000 C   0  0  0  0  0  0  0  0  0  0  0  0
    4.4137   -1.8973    0.0000 F   0  0  0  0  0  0  0  0  0  0  0  0
    1.7463   -3.4373    0.0000 F   0  0  0  0  0  0  0  0  0  0  0  0
    2.3100   -1.3337    0.0000 C   0  0  0  0  0  0  0  0  0  0  0  0
    3.6437   -0.5637    0.0000 F   0  0  0  0  0  0  0  0  0  0  0  0
    0.9763   -2.1037    0.0000 F   0  0  0  0  0  0  0  0  0  0  0  0
    1.5400    0.0000    0.0000 C   0  0  0  0  0  0  0  0  0  0  0  0
    0.0000    0.0000    0.0000 O   0  0  0  0  0  0  0  0  0  0  0  0
  1  2  1  0  0  0  0
  2  3  1  0  0  0  0
  2  4  1  0  0  0  0
  4  5  1  0  0  0  0
  4  6  1  0  0  0  0
  4  7  1  0  0  0  0
  7  8  1  0  0  0  0
  7  9  1  0  0  0  0
  7 10  1  0  0  0  0
 10 11  1  0  0  0  0
 10 12  1  0  0  0  0
 10 13  1  0  0  0  0
 13 14  1  0  0  0  0
 13 15  1  0  0  0  0
 13 16  1  0  0  0  0
 16 17  1  0  0  0  0
 16 18  1  0  0  0  0
 16 19  1  0  0  0  0
 19 20  1  0  0  0  0
M  END
>  <INPUT>
DTXSID9059832

>  <FOUND_BY>
DSSTox_Substance_Id

>  <DTXSID>
DTXSID9059832

>  <PREFERRED_NAME>
1H,1H,7H-Dodecafluoro-1-heptanol

>  <CASRN>
335-99-9

>  <INCHIKEY>
BYKNGMLDSIEFFG-UHFFFAOYSA-N

>  <IUPAC_NAME>
2,2,3,3,4,4,5,5,6,6,7,7-Dodecafluoroheptan-1-ol

>  <SMILES>
OCC(F)(F)C(F)(F)C(F)(F)C(F)(F)C(F)(F)C(F)F

>  <INCHI_STRING>
InChI=1S/C7H4F12O/c8-2(9)4(12,13)6(16,17)7(18,19)5(14,15)3(10,11)1-20/h2,20H,1H2

>  <MOLECULAR_FORMULA>
C7H4F12O

>  <AVERAGE_MASS>
332.089

>  <MONOISOTOPIC_MASS>
332.007052705

>  <MOL_FILE>
MOL_FILE

$$$$

  -INDIGO-02112615072D

 21 18  0  0  0  0  0  0  0  0999 V2000
   -1.6250    0.0000    0.0000 C   0  0  0  0  0  0  0  0  0  0  0  0
   -1.6250   -1.5400    0.0000 C   0  0  0  0  0  0  0  0  0  0  0  0
   -0.0850    0.0000    0.0000 C   0  0  0  0  0  0  0  0  0  0  0  0
   -0.0850   -1.5400    0.0000 C   0  0  0  0  0  0  0  0  0  0  0  0
   -2.7139    1.0889    0.0000 C   0  0  0  0  0  0  0  0  0  0  0  0
   -4.1208    0.4626    0.0000 F   0  0  0  0  0  0  0  0  0  0  0  0
   -3.8584    2.1194    0.0000 F   0  0  0  0  0  0  0  0  0  0  0  0
   -2.7139    2.6289    0.0000 F   0  0  0  0  0  0  0  0  0  0  0  0
   -3.1650   -1.5400    0.0000 F   0  0  0  0  0  0  0  0  0  0  0  0
   -2.3950   -2.8737    0.0000 F   0  0  0  0  0  0  0  0  0  0  0  0
    0.9455    1.1444    0.0000 F   0  0  0  0  0  0  0  0  0  0  0  0
    0.9455   -2.6844    0.0000 F   0  0  0  0  0  0  0  0  0  0  0  0
   -0.6901    1.6033    0.0000 C   0  0  0  0  0  0  0  0  0  0  0  0
   -2.0559    2.3148    0.0000 F   0  0  0  0  0  0  0  0  0  0  0  0
    0.6090    2.4303    0.0000 F   0  0  0  0  0  0  0  0  0  0  0  0
   -0.6901    3.1433    0.0000 F   0  0  0  0  0  0  0  0  0  0  0  0
   -1.7717    1.3933    0.0000 F   0  0  0  0  0  0  0  0  0  0  0  0
    2.2250   -0.7700    0.0000 F   0  0  0  0  0  0  0  0  0  0  0  0
   -0.5983   -0.5133    0.0000 *   0  0  0  0  0  0  0  0  0  0  0  0
   -0.8550    0.0000    0.0000 *   0  0  0  0  0  0  0  0  0  0  0  0
   -0.0850   -0.7700    0.0000 *   0  0  0  0  0  0  0  0  0  0  0  0
  1  2  1  0  0  0  0
  1  3  1  0  0  0  0
  3  4  1  0  0  0  0
  2  4  1  0  0  0  0
  1  5  1  0  0  0  0
  5  6  1  0  0  0  0
  5  7  1  0  0  0  0
  5  8  1  0  0  0  0
  2  9  1  0  0  0  0
  2 10  1  0  0  0  0
  3 11  1  0  0  0  0
  4 12  1  0  0  0  0
 13 14  1  0  0  0  0
 13 16  1  0  0  0  0
 13 15  1  0  0  0  0
 19 13  1  0  0  0  0
 20 17  1  0  0  0  0
 21 18  1  0  0  0  0
M  END
>  <INPUT>
DTXSID1075222

>  <FOUND_BY>
DSSTox_Substance_Id

>  <DTXSID>
DTXSID1075222

>  <PREFERRED_NAME>
Perfluorodimethylcyclobutane

>  <CASRN>
28677-00-1

>  <INCHIKEY>
N/A

>  <IUPAC_NAME>
N/A

>  <SMILES>
F*.F*.FC1C(F)C(F)(F)C1C(F)(F)F.FC(F)(F)* |lp:0:3,2:3,4:3,7:3,9:3,10:3,13:3,14:3,15:3,16:3,18:3,19:3,m:1:11.5,3:5.6,20:11.5.6|

>  <INCHI_STRING>
N/A

>  <MOLECULAR_FORMULA>
C6F12

>  <AVERAGE_MASS>
300.047

>  <MONOISOTOPIC_MASS>
299.980837956

>  <MOL_FILE>
MOL_FILE

$$$$

  -INDIGO-02112615072D

 14 13  0  0  0  0  0  0  0  0999 V2000
    4.9775    1.3337    0.0000 F   0  0  0  0  0  0  0  0  0  0  0  0
    6.5175   -1.3337    0.0000 F   0  0  0  0  0  0  0  0  0  0  0  0
    3.0800    0.0000    0.0000 F   0  0  0  0  0  0  0  0  0  0  0  0
    4.4137   -2.3100    0.0000 F   0  0  0  0  0  0  0  0  0  0  0  0
   12.4161   -0.7700    0.0000 F   0  0  0  0  0  0  0  0  0  0  0  0
   11.8524    1.3337    0.0000 F   0  0  0  0  0  0  0  0  0  0  0  0
   10.3124   -1.3337    0.0000 F   0  0  0  0  0  0  0  0  0  0  0  0
    8.4149    0.0000    0.0000 O   0  0  0  0  0  0  0  0  0  0  0  0
    9.7485    2.3100    0.0000 O   0  0  0  0  0  0  0  0  0  0  0  0
    5.7475    0.0000    0.0000 C   0  0  0  0  0  0  0  0  0  0  0  0
    7.0812    0.7700    0.0000 C   0  0  0  0  0  0  0  0  0  0  0  0
    4.4137   -0.7700    0.0000 C   0  0  0  0  0  0  0  0  0  0  0  0
    9.7485    0.7700    0.0000 C   0  0  0  0  0  0  0  0  0  0  0  0
   11.0824    0.0000    0.0000 C   0  0  0  0  0  0  0  0  0  0  0  0
  1 10  1  0  0  0  0
  2 10  1  0  0  0  0
  3 12  1  0  0  0  0
  4 12  1  0  0  0  0
  5 14  1  0  0  0  0
  6 14  1  0  0  0  0
  7 14  1  0  0  0  0
  8 11  1  0  0  0  0
  8 13  1  0  0  0  0
  9 13  2  0  0  0  0
 10 11  1  0  0  0  0
 10 12  1  0  0  0  0
 13 14  1  0  0  0  0
M  END
>  <INPUT>
DTXSID50380243

>  <FOUND_BY>
DSSTox_Substance_Id

>  <DTXSID>
DTXSID50380243

>  <PREFERRED_NAME>
2,2,3,3-Tetrafluoropropyl trifluoroacetate

>  <CASRN>
107551-72-4

>  <INCHIKEY>
QWXXHRSQCJGYQR-UHFFFAOYSA-N

>  <IUPAC_NAME>
2,2,3,3-Tetrafluoropropyl trifluoroacetate

>  <SMILES>
FC(F)C(F)(F)COC(=O)C(F)(F)F

>  <INCHI_STRING>
InChI=1S/C5H3F7O2/c6-2(7)4(8,9)1-14-3(13)5(10,11)12/h2H,1H2

>  <MOLECULAR_FORMULA>
C5H3F7O2

>  <AVERAGE_MASS>
228.066

>  <MONOISOTOPIC_MASS>
228.002126478

>  <MOL_FILE>
MOL_FILE

$$$$

  -INDIGO-02112615072D

 20 19  0  0  0  0  0  0  0  0999 V2000
   -0.3918    1.9655    0.0000 F   0  0  0  0  0  0  0  0  0  0  0  0
    1.1482   -0.7019    0.0000 F   0  0  0  0  0  0  0  0  0  0  0  0
    0.9419    2.7355    0.0000 F   0  0  0  0  0  0  0  0  0  0  0  0
    2.4819    0.0681    0.0000 F   0  0  0  0  0  0  0  0  0  0  0  0
    0.5845   -1.6782    0.0000 F   0  0  0  0  0  0  0  0  0  0  0  0
    4.3791    2.9418    0.0000 F   0  0  0  0  0  0  0  0  0  0  0  0
    2.2756    3.5055    0.0000 F   0  0  0  0  0  0  0  0  0  0  0  0
    3.8156    0.8381    0.0000 F   0  0  0  0  0  0  0  0  0  0  0  0
   -0.9555   -4.7581    0.0000 F   0  0  0  0  0  0  0  0  0  0  0  0
   -2.4955   -3.2182    0.0000 F   0  0  0  0  0  0  0  0  0  0  0  0
    0.5845   -3.2182    0.0000 F   0  0  0  0  0  0  0  0  0  0  0  0
   -0.9555   -0.1382    0.0000 O   0  0  0  0  0  0  0  0  0  0  0  0
   -3.2655   -0.3445    0.0000 O   0  0  0  0  0  0  0  0  0  0  0  0
   -3.2655   -3.0119    0.0000 O   0  0  0  0  0  0  0  0  0  0  0  0
    0.3782    0.6318    0.0000 C   0  0  0  0  0  0  0  0  0  0  0  0
    1.7119    1.4018    0.0000 C   0  0  0  0  0  0  0  0  0  0  0  0
   -0.9555   -1.6782    0.0000 C   0  0  0  0  0  0  0  0  0  0  0  0
    3.0456    2.1718    0.0000 C   0  0  0  0  0  0  0  0  0  0  0  0
   -0.9555   -3.2182    0.0000 C   0  0  0  0  0  0  0  0  0  0  0  0
   -2.4955   -1.6782    0.0000 C   0  0  0  0  0  0  0  0  0  0  0  0
  1 15  1  0  0  0  0
  2 15  1  0  0  0  0
  3 16  1  0  0  0  0
  4 16  1  0  0  0  0
  5 17  1  0  0  0  0
  6 18  1  0  0  0  0
  7 18  1  0  0  0  0
  8 18  1  0  0  0  0
  9 19  1  0  0  0  0
 10 19  1  0  0  0  0
 11 19  1  0  0  0  0
 12 15  1  0  0  0  0
 12 17  1  0  0  0  0
 13 20  1  0  0  0  0
 14 20  2  0  0  0  0
 15 16  1  0  0  0  0
 16 18  1  0  0  0  0
 17 19  1  0  0  0  0
 17 20  1  0  0  0  0
M  END
>  <INPUT>
DTXSID70880215

>  <FOUND_BY>
DSSTox_Substance_Id

>  <DTXSID>
DTXSID70880215

>  <PREFERRED_NAME>
Perfluoro-2-methyl-3-oxahexanoic acid

>  <CASRN>
13252-13-6

>  <INCHIKEY>
CSEBNABAWMZWIF-UHFFFAOYNA-N

>  <IUPAC_NAME>
2,3,3,3-Tetrafluoro-2-(heptafluoropropoxy)propanoic acid

>  <SMILES>
OC(=O)C(F)(OC(F)(F)C(F)(F)C(F)(F)F)C(F)(F)F

>  <INCHI_STRING>
InChI=1/C6HF11O3/c7-2(1(18)19,4(10,11)12)20-6(16,17)3(8,9)5(13,14)15/h(H,18,19)


>  <MOLECULAR_FORMULA>
C6HF11O3

>  <AVERAGE_MASS>
330.053

>  <MONOISOTOPIC_MASS>
329.975003685

>  <MOL_FILE>
MOL_FILE

$$$$

  -INDIGO-02112615072D

 16 16  0  0  0  0  0  0  0  0999 V2000
    5.9537   -1.5400    0.0000 S   0  0  0  0  0  0  0  0  0  0  0  0
    7.2875    0.7700    0.0000 S   0  0  0  0  0  0  0  0  0  0  0  0
    3.8500    2.1037    0.0000 F   0  0  0  0  0  0  0  0  0  0  0  0
    3.0800    0.7700    0.0000 F   0  0  0  0  0  0  0  0  0  0  0  0
    6.7237    2.8737    0.0000 F   0  0  0  0  0  0  0  0  0  0  0  0
    5.1837    2.8737    0.0000 F   0  0  0  0  0  0  0  0  0  0  0  0
    3.8500   -2.1037    0.0000 F   0  0  0  0  0  0  0  0  0  0  0  0
    3.0800   -0.7700    0.0000 F   0  0  0  0  0  0  0  0  0  0  0  0
    8.8275    0.7700    0.0000 O   0  0  0  0  0  0  0  0  0  0  0  0
    8.0575    2.1037    0.0000 O   0  0  0  0  0  0  0  0  0  0  0  0
    6.7237   -2.8737    0.0000 O   0  0  0  0  0  0  0  0  0  0  0  0
    5.1837   -2.8737    0.0000 O   0  0  0  0  0  0  0  0  0  0  0  0
    7.2875   -0.7700    0.0000 N   0  0  0  0  0  0  0  0  0  0  0  0
    4.6202    0.7700    0.0000 C   0  0  0  0  0  0  0  0  0  0  0  0
    4.6202   -0.7700    0.0000 C   0  0  0  0  0  0  0  0  0  0  0  0
    5.9537    1.5400    0.0000 C   0  0  0  0  0  0  0  0  0  0  0  0
  1 11  2  0  0  0  0
  1 12  2  0  0  0  0
  1 13  1  0  0  0  0
  1 15  1  0  0  0  0
  2  9  2  0  0  0  0
  2 10  2  0  0  0  0
  2 13  1  0  0  0  0
  2 16  1  0  0  0  0
  3 14  1  0  0  0  0
  4 14  1  0  0  0  0
  5 16  1  0  0  0  0
  6 16  1  0  0  0  0
  7 15  1  0  0  0  0
  8 15  1  0  0  0  0
 14 15  1  0  0  0  0
 14 16  1  0  0  0  0
M  END
>  <INPUT>
DTXSID30458858

>  <FOUND_BY>
DSSTox_Substance_Id

>  <DTXSID>
DTXSID30458858

>  <PREFERRED_NAME>
Cyclohexafluoropropane-1,3-bis(sulfonyl)imide

>  <CASRN>
84246-29-7

>  <INCHIKEY>
WOAGDWWRYOZHDS-UHFFFAOYSA-N

>  <IUPAC_NAME>
4,4,5,5,6,6-Hexafluoro-1lambda~6~,3lambda~6~,2-dithiazinane-1,1,3,3-tetrone

>  <SMILES>
FC1(F)C(F)(F)S(=O)(=O)NS(=O)(=O)C1(F)F

>  <INCHI_STRING>
InChI=1S/C3HF6NO4S2/c4-1(5)2(6,7)15(11,12)10-16(13,14)3(1,8)9/h10H

>  <MOLECULAR_FORMULA>
C3HF6NO4S2

>  <AVERAGE_MASS>
293.15

>  <MONOISOTOPIC_MASS>
292.925118842

>  <MOL_FILE>
MOL_FILE

$$$$

  -INDIGO-02112615072D

 14 13  0  0  0  0  0  0  0  0999 V2000
    4.9775    0.9486    0.0000 I   0  0  0  0  0  0  0  0  0  0  0  0
    6.5175   -1.7186    0.0000 F   0  0  0  0  0  0  0  0  0  0  0  0
    7.8512   -0.9486    0.0000 F   0  0  0  0  0  0  0  0  0  0  0  0
    6.3112    1.7186    0.0000 F   0  0  0  0  0  0  0  0  0  0  0  0
    3.0800   -1.9251    0.0000 F   0  0  0  0  0  0  0  0  0  0  0  0
    3.6437    0.1786    0.0000 F   0  0  0  0  0  0  0  0  0  0  0  0
    5.1837   -2.4886    0.0000 F   0  0  0  0  0  0  0  0  0  0  0  0
    9.7485    1.9251    0.0000 F   0  0  0  0  0  0  0  0  0  0  0  0
    9.1849   -0.1786    0.0000 F   0  0  0  0  0  0  0  0  0  0  0  0
    7.6449    2.4886    0.0000 F   0  0  0  0  0  0  0  0  0  0  0  0
    5.7475   -0.3851    0.0000 C   0  0  0  0  0  0  0  0  0  0  0  0
    7.0812    0.3851    0.0000 C   0  0  0  0  0  0  0  0  0  0  0  0
    4.4137   -1.1551    0.0000 C   0  0  0  0  0  0  0  0  0  0  0  0
    8.4149    1.1551    0.0000 C   0  0  0  0  0  0  0  0  0  0  0  0
  1 11  1  0  0  0  0
  2 11  1  0  0  0  0
  3 12  1  0  0  0  0
  4 12  1  0  0  0  0
  5 13  1  0  0  0  0
  6 13  1  0  0  0  0
  7 13  1  0  0  0  0
  8 14  1  0  0  0  0
  9 14  1  0  0  0  0
 10 14  1  0  0  0  0
 11 12  1  0  0  0  0
 11 13  1  0  0  0  0
 12 14  1  0  0  0  0
M  END
>  <INPUT>
DTXSID20379427

>  <FOUND_BY>
DSSTox_Substance_Id

>  <DTXSID>
DTXSID20379427

>  <PREFERRED_NAME>
2-Iodoperfluorobutane

>  <CASRN>
375-51-9

>  <INCHIKEY>
FBJVLVWUMYWJMY-UHFFFAOYNA-N

>  <IUPAC_NAME>
1,1,1,2,2,3,4,4,4-Nonafluoro-3-iodobutane

>  <SMILES>
FC(F)(F)C(F)(F)C(F)(I)C(F)(F)F

>  <INCHI_STRING>
InChI=1S/C4F9I/c5-1(6,3(8,9)10)2(7,14)4(11,12)13

>  <MOLECULAR_FORMULA>
C4F9I

>  <AVERAGE_MASS>
345.934

>  <MONOISOTOPIC_MASS>
345.8901

>  <MOL_FILE>
MOL_FILE

$$$$

  -INDIGO-02112615072D

 19 19  0  0  0  0  0  0  0  0999 V2000
   -0.6669    2.8737    0.0000 F   0  0  0  0  0  0  0  0  0  0  0  0
   -2.0006    2.1037    0.0000 F   0  0  0  0  0  0  0  0  0  0  0  0
   -2.7706    0.7700    0.0000 F   0  0  0  0  0  0  0  0  0  0  0  0
    1.2831   -2.5299    0.0000 F   0  0  0  0  0  0  0  0  0  0  0  0
    0.1031    4.2075    0.0000 F   0  0  0  0  0  0  0  0  0  0  0  0
    1.6431    4.2075    0.0000 F   0  0  0  0  0  0  0  0  0  0  0  0
    2.2071    2.1037    0.0000 F   0  0  0  0  0  0  0  0  0  0  0  0
    0.3230   -4.0535    0.0000 F   0  0  0  0  0  0  0  0  0  0  0  0
   -2.0006   -2.1037    0.0000 F   0  0  0  0  0  0  0  0  0  0  0  0
   -1.4369   -4.2075    0.0000 F   0  0  0  0  0  0  0  0  0  0  0  0
   -1.2304   -0.7700    0.0000 O   0  0  0  0  0  0  0  0  0  0  0  0
    1.4371    0.7700    0.0000 O   0  0  0  0  0  0  0  0  0  0  0  0
    2.7706   -1.5400    0.0000 O   0  0  0  0  0  0  0  0  0  0  0  0
    0.1031    1.5400    0.0000 C   0  0  0  0  0  0  0  0  0  0  0  0
   -1.2304    0.7700    0.0000 C   0  0  0  0  0  0  0  0  0  0  0  0
    0.1031   -1.5400    0.0000 C   0  0  0  0  0  0  0  0  0  0  0  0
    1.4371   -0.7700    0.0000 C   0  0  0  0  0  0  0  0  0  0  0  0
    0.8731    2.8737    0.0000 C   0  0  0  0  0  0  0  0  0  0  0  0
   -0.6669   -2.8737    0.0000 C   0  0  0  0  0  0  0  0  0  0  0  0
  1 14  1  0  0  0  0
  2 15  1  0  0  0  0
  3 15  1  0  0  0  0
  4 16  1  0  0  0  0
  5 18  1  0  0  0  0
  6 18  1  0  0  0  0
  7 18  1  0  0  0  0
  8 19  1  0  0  0  0
  9 19  1  0  0  0  0
 10 19  1  0  0  0  0
 11 15  1  0  0  0  0
 11 16  1  0  0  0  0
 12 14  1  0  0  0  0
 12 17  1  0  0  0  0
 13 17  2  0  0  0  0
 14 15  1  0  0  0  0
 14 18  1  0  0  0  0
 16 17  1  0  0  0  0
 16 19  1  0  0  0  0
M  END
>  <INPUT>
DTXSID70880210

>  <FOUND_BY>
DSSTox_Substance_Id

>  <DTXSID>
DTXSID70880210

>  <PREFERRED_NAME>
Perfluoro-3,6-dimethyl-1,4-dioxan-2-one

>  <CASRN>
7309-84-4

>  <INCHIKEY>
CWRPQPNYDDMAMA-UHFFFAOYNA-N

>  <IUPAC_NAME>
3,5,5,6-Tetrafluoro-3,6-bis(trifluoromethyl)-1,4-dioxan-2-one

>  <SMILES>
FC(F)(F)C1(F)OC(F)(F)C(F)(OC1=O)C(F)(F)F

>  <INCHI_STRING>
InChI=1S/C6F10O3/c7-2(4(9,10)11)1(17)18-3(8,5(12,13)14)6(15,16)19-2

>  <MOLECULAR_FORMULA>
C6F10O3

>  <AVERAGE_MASS>
310.047

>  <MONOISOTOPIC_MASS>
309.96877549

>  <MOL_FILE>
MOL_FILE

$$$$

  -INDIGO-02112615072D

 14 13  0  0  0  0  0  0  0  0999 V2000
    8.4149    0.0000    0.0000 S   0  0  0  0  0  0  0  0  0  0  0  0
   11.0824    1.5400    0.0000 F   0  0  0  0  0  0  0  0  0  0  0  0
   10.5187   -0.5637    0.0000 F   0  0  0  0  0  0  0  0  0  0  0  0
    8.9785    2.1037    0.0000 F   0  0  0  0  0  0  0  0  0  0  0  0
    3.0800   -1.5400    0.0000 F   0  0  0  0  0  0  0  0  0  0  0  0
    3.6437    0.5637    0.0000 F   0  0  0  0  0  0  0  0  0  0  0  0
    5.1837   -2.1037    0.0000 F   0  0  0  0  0  0  0  0  0  0  0  0
    7.0812   -0.7700    0.0000 O   0  0  0  0  0  0  0  0  0  0  0  0
    7.6449    1.3337    0.0000 O   0  0  0  0  0  0  0  0  0  0  0  0
    9.1849   -1.3337    0.0000 O   0  0  0  0  0  0  0  0  0  0  0  0
    5.7475    1.5400    0.0000 O   0  0  0  0  0  0  0  0  0  0  0  0
    9.7485    0.7700    0.0000 C   0  0  0  0  0  0  0  0  0  0  0  0
    5.7475    0.0000    0.0000 C   0  0  0  0  0  0  0  0  0  0  0  0
    4.4137   -0.7700    0.0000 C   0  0  0  0  0  0  0  0  0  0  0  0
  1  8  1  0  0  0  0
  1  9  2  0  0  0  0
  1 10  2  0  0  0  0
  1 12  1  0  0  0  0
  2 12  1  0  0  0  0
  3 12  1  0  0  0  0
  4 12  1  0  0  0  0
  5 14  1  0  0  0  0
  6 14  1  0  0  0  0
  7 14  1  0  0  0  0
  8 13  1  0  0  0  0
 11 13  2  0  0  0  0
 13 14  1  0  0  0  0
M  END
>  <INPUT>
DTXSID60370610

>  <FOUND_BY>
DSSTox_Substance_Id

>  <DTXSID>
DTXSID60370610

>  <PREFERRED_NAME>
Trifluoroacetyl triflate

>  <CASRN>
68602-57-3

>  <INCHIKEY>
FWJGTOABGBFQNT-UHFFFAOYSA-N

>  <IUPAC_NAME>
N/A

>  <SMILES>
FC(F)(F)C(=O)OS(=O)(=O)C(F)(F)F

>  <INCHI_STRING>
InChI=1S/C3F6O4S/c4-2(5,6)1(10)13-14(11,12)3(7,8)9

>  <MOLECULAR_FORMULA>
C3F6O4S

>  <AVERAGE_MASS>
246.08

>  <MONOISOTOPIC_MASS>
245.942148632

>  <MOL_FILE>
MOL_FILE

$$$$

  -INDIGO-02112615072D

 26 25  0  0  0  0  0  0  0  0999 V2000
   11.6461    1.4368    0.0000 F   0  0  0  0  0  0  0  0  0  0  0  0
   13.1861   -1.2305    0.0000 F   0  0  0  0  0  0  0  0  0  0  0  0
   10.3124    0.6668    0.0000 F   0  0  0  0  0  0  0  0  0  0  0  0
   11.8524   -2.0005    0.0000 F   0  0  0  0  0  0  0  0  0  0  0  0
   12.9797    2.2070    0.0000 F   0  0  0  0  0  0  0  0  0  0  0  0
   14.5197   -0.4605    0.0000 F   0  0  0  0  0  0  0  0  0  0  0  0
    8.9785   -0.1032    0.0000 F   0  0  0  0  0  0  0  0  0  0  0  0
   10.5187   -2.7705    0.0000 F   0  0  0  0  0  0  0  0  0  0  0  0
   15.8534    0.3095    0.0000 F   0  0  0  0  0  0  0  0  0  0  0  0
   14.3134    2.9770    0.0000 F   0  0  0  0  0  0  0  0  0  0  0  0
   17.7509    3.1832    0.0000 F   0  0  0  0  0  0  0  0  0  0  0  0
   17.1873    1.0795    0.0000 F   0  0  0  0  0  0  0  0  0  0  0  0
   15.6471    3.7470    0.0000 F   0  0  0  0  0  0  0  0  0  0  0  0
    7.0812   -1.4368    0.0000 O   0  0  0  0  0  0  0  0  0  0  0  0
    5.7475   -3.7470    0.0000 O   0  0  0  0  0  0  0  0  0  0  0  0
   12.4161    0.1032    0.0000 C   0  0  0  0  0  0  0  0  0  0  0  0
   11.0824   -0.6668    0.0000 C   0  0  0  0  0  0  0  0  0  0  0  0
   13.7497    0.8732    0.0000 C   0  0  0  0  0  0  0  0  0  0  0  0
    9.7485   -1.4368    0.0000 C   0  0  0  0  0  0  0  0  0  0  0  0
   15.0834    1.6432    0.0000 C   0  0  0  0  0  0  0  0  0  0  0  0
    8.4149   -2.2070    0.0000 C   0  0  0  0  0  0  0  0  0  0  0  0
   16.4171    2.4132    0.0000 C   0  0  0  0  0  0  0  0  0  0  0  0
    5.7475   -2.2070    0.0000 C   0  0  0  0  0  0  0  0  0  0  0  0
    4.4137   -1.4368    0.0000 C   0  0  0  0  0  0  0  0  0  0  0  0
    3.0800   -2.2070    0.0000 C   0  0  0  0  0  0  0  0  0  0  0  0
    4.4137    0.1032    0.0000 C   0  0  0  0  0  0  0  0  0  0  0  0
  1 16  1  0  0  0  0
  2 16  1  0  0  0  0
  3 17  1  0  0  0  0
  4 17  1  0  0  0  0
  5 18  1  0  0  0  0
  6 18  1  0  0  0  0
  7 19  1  0  0  0  0
  8 19  1  0  0  0  0
  9 20  1  0  0  0  0
 10 20  1  0  0  0  0
 11 22  1  0  0  0  0
 12 22  1  0  0  0  0
 13 22  1  0  0  0  0
 14 21  1  0  0  0  0
 14 23  1  0  0  0  0
 15 23  2  0  0  0  0
 16 17  1  0  0  0  0
 16 18  1  0  0  0  0
 17 19  1  0  0  0  0
 18 20  1  0  0  0  0
 19 21  1  0  0  0  0
 20 22  1  0  0  0  0
 23 24  1  0  0  0  0
 24 25  1  0  0  0  0
 24 26  2  0  0  0  0
M  END
>  <INPUT>
DTXSID60197405

>  <FOUND_BY>
DSSTox_Substance_Id

>  <DTXSID>
DTXSID60197405

>  <PREFERRED_NAME>
(Perfluorohexyl)methyl methacrylate

>  <CASRN>
48076-44-4

>  <INCHIKEY>
OGTUUPXNYCOCKQ-UHFFFAOYSA-N

>  <IUPAC_NAME>
2,2,3,3,4,4,5,5,6,6,7,7,7-Tridecafluoroheptyl 2-methylprop-2-enoate

>  <SMILES>
CC(=C)C(=O)OCC(F)(F)C(F)(F)C(F)(F)C(F)(F)C(F)(F)C(F)(F)F

>  <INCHI_STRING>
InChI=1S/C11H7F13O2/c1-4(2)5(25)26-3-6(12,13)7(14,15)8(16,17)9(18,19)10(20,21)11(22,23)24/h1,3H2,2H3


>  <MOLECULAR_FORMULA>
C11H7F13O2

>  <AVERAGE_MASS>
418.154

>  <MONOISOTOPIC_MASS>
418.023845584

>  <MOL_FILE>
MOL_FILE

$$$$

  -INDIGO-02112615072D

 20 19  0  0  0  0  0  0  0  0999 V2000
    3.0800   -2.6951    0.0000 Br  0  0  0  0  0  0  0  0  0  0  0  0
    6.3112    0.9486    0.0000 F   0  0  0  0  0  0  0  0  0  0  0  0
    7.8512   -1.7186    0.0000 F   0  0  0  0  0  0  0  0  0  0  0  0
    9.1849   -0.9486    0.0000 F   0  0  0  0  0  0  0  0  0  0  0  0
    7.6449    1.7186    0.0000 F   0  0  0  0  0  0  0  0  0  0  0  0
    4.9775    0.1786    0.0000 F   0  0  0  0  0  0  0  0  0  0  0  0
    6.5175   -2.4886    0.0000 F   0  0  0  0  0  0  0  0  0  0  0  0
   10.5187   -0.1786    0.0000 F   0  0  0  0  0  0  0  0  0  0  0  0
    8.9785    2.4886    0.0000 F   0  0  0  0  0  0  0  0  0  0  0  0
    3.6437   -0.5914    0.0000 F   0  0  0  0  0  0  0  0  0  0  0  0
    5.1837   -3.2586    0.0000 F   0  0  0  0  0  0  0  0  0  0  0  0
   12.4161    2.6951    0.0000 F   0  0  0  0  0  0  0  0  0  0  0  0
   11.8524    0.5914    0.0000 F   0  0  0  0  0  0  0  0  0  0  0  0
   10.3124    3.2586    0.0000 F   0  0  0  0  0  0  0  0  0  0  0  0
    7.0812   -0.3851    0.0000 C   0  0  0  0  0  0  0  0  0  0  0  0
    8.4149    0.3851    0.0000 C   0  0  0  0  0  0  0  0  0  0  0  0
    5.7475   -1.1551    0.0000 C   0  0  0  0  0  0  0  0  0  0  0  0
    9.7485    1.1551    0.0000 C   0  0  0  0  0  0  0  0  0  0  0  0
    4.4137   -1.9251    0.0000 C   0  0  0  0  0  0  0  0  0  0  0  0
   11.0824    1.9251    0.0000 C   0  0  0  0  0  0  0  0  0  0  0  0
  1 19  1  0  0  0  0
  2 15  1  0  0  0  0
  3 15  1  0  0  0  0
  4 16  1  0  0  0  0
  5 16  1  0  0  0  0
  6 17  1  0  0  0  0
  7 17  1  0  0  0  0
  8 18  1  0  0  0  0
  9 18  1  0  0  0  0
 10 19  1  0  0  0  0
 11 19  1  0  0  0  0
 12 20  1  0  0  0  0
 13 20  1  0  0  0  0
 14 20  1  0  0  0  0
 15 16  1  0  0  0  0
 15 17  1  0  0  0  0
 16 18  1  0  0  0  0
 17 19  1  0  0  0  0
 18 20  1  0  0  0  0
M  END
>  <INPUT>
DTXSID80187141

>  <FOUND_BY>
DSSTox_Substance_Id

>  <DTXSID>
DTXSID80187141

>  <PREFERRED_NAME>
Perfluorohexylbromide

>  <CASRN>
335-56-8

>  <INCHIKEY>
JTYRBFORUCBNHJ-UHFFFAOYSA-N

>  <IUPAC_NAME>
1-Bromo-1,1,2,2,3,3,4,4,5,5,6,6,6-tridecafluorohexane

>  <SMILES>
FC(F)(F)C(F)(F)C(F)(F)C(F)(F)C(F)(F)C(F)(F)Br

>  <INCHI_STRING>
InChI=1S/C6BrF13/c7-5(16,17)3(12,13)1(8,9)2(10,11)4(14,15)6(18,19)20

>  <MOLECULAR_FORMULA>
C6BrF13

>  <AVERAGE_MASS>
398.949

>  <MONOISOTOPIC_MASS>
397.897579

>  <MOL_FILE>
MOL_FILE

$$$$

  -INDIGO-02112615072D

 20 19  0  0  0  0  0  0  0  0999 V2000
    6.3112    0.8454    0.0000 F   0  0  0  0  0  0  0  0  0  0  0  0
    7.8512   -1.8219    0.0000 F   0  0  0  0  0  0  0  0  0  0  0  0
    7.6449    1.6154    0.0000 F   0  0  0  0  0  0  0  0  0  0  0  0
    9.1849   -1.0519    0.0000 F   0  0  0  0  0  0  0  0  0  0  0  0
    4.9775    0.0754    0.0000 F   0  0  0  0  0  0  0  0  0  0  0  0
    6.5175   -2.5919    0.0000 F   0  0  0  0  0  0  0  0  0  0  0  0
   10.5187   -0.2819    0.0000 F   0  0  0  0  0  0  0  0  0  0  0  0
    8.9785    2.3856    0.0000 F   0  0  0  0  0  0  0  0  0  0  0  0
    3.0800   -2.7983    0.0000 F   0  0  0  0  0  0  0  0  0  0  0  0
    3.6437   -0.6946    0.0000 F   0  0  0  0  0  0  0  0  0  0  0  0
    5.1837   -3.3619    0.0000 F   0  0  0  0  0  0  0  0  0  0  0  0
   11.0824    3.3619    0.0000 O   0  0  0  0  0  0  0  0  0  0  0  0
    7.0812   -0.4881    0.0000 C   0  0  0  0  0  0  0  0  0  0  0  0
    8.4149    0.2819    0.0000 C   0  0  0  0  0  0  0  0  0  0  0  0
    5.7475   -1.2581    0.0000 C   0  0  0  0  0  0  0  0  0  0  0  0
    9.7485    1.0519    0.0000 C   0  0  0  0  0  0  0  0  0  0  0  0
    4.4137   -2.0281    0.0000 C   0  0  0  0  0  0  0  0  0  0  0  0
   11.0824    1.8219    0.0000 C   0  0  0  0  0  0  0  0  0  0  0  0
   12.4161    1.0519    0.0000 C   0  0  0  0  0  0  0  0  0  0  0  0
   13.7497    1.8219    0.0000 C   0  0  0  0  0  0  0  0  0  0  0  0
  1 13  1  0  0  0  0
  2 13  1  0  0  0  0
  3 14  1  0  0  0  0
  4 14  1  0  0  0  0
  5 15  1  0  0  0  0
  6 15  1  0  0  0  0
  7 16  1  0  0  0  0
  8 16  1  0  0  0  0
  9 17  1  0  0  0  0
 10 17  1  0  0  0  0
 11 17  1  0  0  0  0
 12 18  2  0  0  0  0
 13 14  1  0  0  0  0
 13 15  1  0  0  0  0
 14 16  1  0  0  0  0
 15 17  1  0  0  0  0
 16 18  1  0  0  0  0
 18 19  1  0  0  0  0
 19 20  1  0  0  0  0
M  END
>  <INPUT>
DTXSID90659945

>  <FOUND_BY>
DSSTox_Substance_Id

>  <DTXSID>
DTXSID90659945

>  <PREFERRED_NAME>
Ethyl perfluoropentanyl ketone

>  <CASRN>
383177-55-7

>  <INCHIKEY>
VHTNJYGNFUMJTN-UHFFFAOYSA-N

>  <IUPAC_NAME>
4,4,5,5,6,6,7,7,8,8,8-Undecafluorooctan-3-one

>  <SMILES>
CCC(=O)C(F)(F)C(F)(F)C(F)(F)C(F)(F)C(F)(F)F

>  <INCHI_STRING>
InChI=1S/C8H5F11O/c1-2-3(20)4(9,10)5(11,12)6(13,14)7(15,16)8(17,18)19/h2H2,1H3

>  <MOLECULAR_FORMULA>
C8H5F11O

>  <AVERAGE_MASS>
326.109

>  <MONOISOTOPIC_MASS>
326.016474574

>  <MOL_FILE>
MOL_FILE

$$$$

  -INDIGO-02112615072D

 19 18  0  0  0  0  0  0  0  0999 V2000
   11.1100   -0.6669    0.0000 S   0  0  0  0  0  0  0  0  0  0  0  0
    7.2599    2.2069    0.0000 F   0  0  0  0  0  0  0  0  0  0  0  0
    7.2598   -0.8732    0.0000 F   0  0  0  0  0  0  0  0  0  0  0  0
    5.7199    2.2069    0.0000 F   0  0  0  0  0  0  0  0  0  0  0  0
    5.7198   -0.8732    0.0000 F   0  0  0  0  0  0  0  0  0  0  0  0
    2.6397    0.6669    0.0000 F   0  0  0  0  0  0  0  0  0  0  0  0
    4.1797    2.2068    0.0000 F   0  0  0  0  0  0  0  0  0  0  0  0
    4.1798   -0.8732    0.0000 F   0  0  0  0  0  0  0  0  0  0  0  0
   14.1899   -0.6669    0.0000 F   0  0  0  0  0  0  0  0  0  0  0  0
   12.6501   -2.2069    0.0000 F   0  0  0  0  0  0  0  0  0  0  0  0
   12.6501    0.8731    0.0000 F   0  0  0  0  0  0  0  0  0  0  0  0
    9.5698   -0.6668    0.0000 O   0  0  0  0  0  0  0  0  0  0  0  0
   11.1100   -2.2070    0.0000 O   0  0  0  0  0  0  0  0  0  0  0  0
   11.1100    0.8731    0.0000 O   0  0  0  0  0  0  0  0  0  0  0  0
    7.2599    0.6668    0.0000 C   0  0  0  0  0  0  0  0  0  0  0  0
    5.7198    0.6668    0.0000 C   0  0  0  0  0  0  0  0  0  0  0  0
    8.7999    0.6668    0.0000 C   0  0  0  0  0  0  0  0  0  0  0  0
    4.1798    0.6669    0.0000 C   0  0  0  0  0  0  0  0  0  0  0  0
   12.6501   -0.6670    0.0000 C   0  0  0  0  0  0  0  0  0  0  0  0
  1 12  1  0  0  0  0
  1 13  2  0  0  0  0
  1 14  2  0  0  0  0
  1 19  1  0  0  0  0
  2 15  1  0  0  0  0
  3 15  1  0  0  0  0
  4 16  1  0  0  0  0
  5 16  1  0  0  0  0
  6 18  1  0  0  0  0
  7 18  1  0  0  0  0
  8 18  1  0  0  0  0
  9 19  1  0  0  0  0
 10 19  1  0  0  0  0
 11 19  1  0  0  0  0
 12 17  1  0  0  0  0
 15 16  1  0  0  0  0
 15 17  1  0  0  0  0
 16 18  1  0  0  0  0
M  END
>  <INPUT>
DTXSID70379255

>  <FOUND_BY>
DSSTox_Substance_Id

>  <DTXSID>
DTXSID70379255

>  <PREFERRED_NAME>
1H,1H-Heptafluorobutyl triflate

>  <CASRN>
6401-01-0

>  <INCHIKEY>
NFLLLSBGBGDVEO-UHFFFAOYSA-N

>  <IUPAC_NAME>
2,2,3,3,4,4,4-Heptafluorobutyl trifluoromethanesulfonate

>  <SMILES>
FC(F)(F)C(F)(F)C(F)(F)COS(=O)(=O)C(F)(F)F

>  <INCHI_STRING>
InChI=1S/C5H2F10O3S/c6-2(7,3(8,9)4(10,11)12)1-18-19(16,17)5(13,14)15/h1H2


>  <MOLECULAR_FORMULA>
C5H2F10O3S

>  <AVERAGE_MASS>
332.11

>  <MONOISOTOPIC_MASS>
331.956496728

>  <MOL_FILE>
MOL_FILE

$$$$

  -INDIGO-02112615072D

 11 10  0  0  0  0  0  0  0  0999 V2000
    6.5175   -1.2305    0.0000 F   0  0  0  0  0  0  0  0  0  0  0  0
    8.4149    1.6432    0.0000 F   0  0  0  0  0  0  0  0  0  0  0  0
    6.3112    2.2070    0.0000 F   0  0  0  0  0  0  0  0  0  0  0  0
    7.8512   -0.4605    0.0000 F   0  0  0  0  0  0  0  0  0  0  0  0
    3.0800    0.1032    0.0000 F   0  0  0  0  0  0  0  0  0  0  0  0
    4.4137   -2.2070    0.0000 F   0  0  0  0  0  0  0  0  0  0  0  0
    4.9775    1.4368    0.0000 O   0  0  0  0  0  0  0  0  0  0  0  0
    5.7475    0.1032    0.0000 C   0  0  0  0  0  0  0  0  0  0  0  0
    7.0812    0.8732    0.0000 C   0  0  0  0  0  0  0  0  0  0  0  0
    4.4137   -0.6668    0.0000 C   0  0  0  0  0  0  0  0  0  0  0  0
    3.4373    1.4368    0.0000 C   0  0  0  0  0  0  0  0  0  0  0  0
  1  8  1  0  0  0  0
  2  9  1  0  0  0  0
  3  9  1  0  0  0  0
  4  9  1  0  0  0  0
  5 10  1  0  0  0  0
  6 10  1  0  0  0  0
  7  8  1  0  0  0  0
  7 11  1  0  0  0  0
  8  9  1  0  0  0  0
  8 10  1  0  0  0  0
M  END
>  <INPUT>
DTXSID70537191

>  <FOUND_BY>
DSSTox_Substance_Id

>  <DTXSID>
DTXSID70537191

>  <PREFERRED_NAME>
Methyl 3H-perfluoroisopropyl ether

>  <CASRN>
568550-25-4

>  <INCHIKEY>
PJEHWIWMSWGDDQ-UHFFFAOYNA-N

>  <IUPAC_NAME>
1,1,1,2,3,3-Hexafluoro-2-methoxypropane

>  <SMILES>
COC(F)(C(F)F)C(F)(F)F

>  <INCHI_STRING>
InChI=1S/C4H4F6O/c1-11-3(7,2(5)6)4(8,9)10/h2H,1H3

>  <MOLECULAR_FORMULA>
C4H4F6O

>  <AVERAGE_MASS>
182.065

>  <MONOISOTOPIC_MASS>
182.016633727

>  <MOL_FILE>
MOL_FILE

$$$$

  -INDIGO-02112615072D

 35 35  0  0  0  0  0  0  0  0999 V2000
    4.4137   -1.5831    0.0000 S   0  0  0  0  0  0  0  0  0  0  0  0
    8.9785    4.3706    0.0000 F   0  0  0  0  0  0  0  0  0  0  0  0
   10.5187    1.7033    0.0000 F   0  0  0  0  0  0  0  0  0  0  0  0
   10.3124    5.1406    0.0000 F   0  0  0  0  0  0  0  0  0  0  0  0
   11.8524    2.4733    0.0000 F   0  0  0  0  0  0  0  0  0  0  0  0
    7.6449    3.6006    0.0000 F   0  0  0  0  0  0  0  0  0  0  0  0
    9.1849    0.9333    0.0000 F   0  0  0  0  0  0  0  0  0  0  0  0
   11.6461    5.9106    0.0000 F   0  0  0  0  0  0  0  0  0  0  0  0
   13.1861    3.2433    0.0000 F   0  0  0  0  0  0  0  0  0  0  0  0
    6.3112    2.8306    0.0000 F   0  0  0  0  0  0  0  0  0  0  0  0
    7.8512    0.1633    0.0000 F   0  0  0  0  0  0  0  0  0  0  0  0
   12.9797    6.6806    0.0000 F   0  0  0  0  0  0  0  0  0  0  0  0
   14.5197    4.0133    0.0000 F   0  0  0  0  0  0  0  0  0  0  0  0
   14.3134    7.4506    0.0000 F   0  0  0  0  0  0  0  0  0  0  0  0
   15.8534    4.7833    0.0000 F   0  0  0  0  0  0  0  0  0  0  0  0
   17.7509    7.6571    0.0000 F   0  0  0  0  0  0  0  0  0  0  0  0
   15.6471    8.2206    0.0000 F   0  0  0  0  0  0  0  0  0  0  0  0
   17.1873    5.5533    0.0000 F   0  0  0  0  0  0  0  0  0  0  0  0
    4.4137   -7.7433    0.0000 O   0  0  0  0  0  0  0  0  0  0  0  0
    9.7485    3.0369    0.0000 C   0  0  0  0  0  0  0  0  0  0  0  0
   11.0824    3.8069    0.0000 C   0  0  0  0  0  0  0  0  0  0  0  0
    8.4149    2.2669    0.0000 C   0  0  0  0  0  0  0  0  0  0  0  0
   12.4161    4.5771    0.0000 C   0  0  0  0  0  0  0  0  0  0  0  0
    7.0812    1.4969    0.0000 C   0  0  0  0  0  0  0  0  0  0  0  0
   13.7497    5.3471    0.0000 C   0  0  0  0  0  0  0  0  0  0  0  0
    5.7475    0.7269    0.0000 C   0  0  0  0  0  0  0  0  0  0  0  0
   15.0834    6.1171    0.0000 C   0  0  0  0  0  0  0  0  0  0  0  0
    5.7475   -0.8131    0.0000 C   0  0  0  0  0  0  0  0  0  0  0  0
   16.4171    6.8871    0.0000 C   0  0  0  0  0  0  0  0  0  0  0  0
    4.4137   -3.1231    0.0000 C   0  0  0  0  0  0  0  0  0  0  0  0
    3.0800   -3.8931    0.0000 C   0  0  0  0  0  0  0  0  0  0  0  0
    5.7475   -3.8931    0.0000 C   0  0  0  0  0  0  0  0  0  0  0  0
    3.0800   -5.4333    0.0000 C   0  0  0  0  0  0  0  0  0  0  0  0
    5.7475   -5.4333    0.0000 C   0  0  0  0  0  0  0  0  0  0  0  0
    4.4137   -6.2033    0.0000 C   0  0  0  0  0  0  0  0  0  0  0  0
  1 28  1  0  0  0  0
  1 30  1  0  0  0  0
  2 20  1  0  0  0  0
  3 20  1  0  0  0  0
  4 21  1  0  0  0  0
  5 21  1  0  0  0  0
  6 22  1  0  0  0  0
  7 22  1  0  0  0  0
  8 23  1  0  0  0  0
  9 23  1  0  0  0  0
 10 24  1  0  0  0  0
 11 24  1  0  0  0  0
 12 25  1  0  0  0  0
 13 25  1  0  0  0  0
 14 27  1  0  0  0  0
 15 27  1  0  0  0  0
 16 29  1  0  0  0  0
 17 29  1  0  0  0  0
 18 29  1  0  0  0  0
 19 35  1  0  0  0  0
 20 21  1  0  0  0  0
 20 22  1  0  0  0  0
 21 23  1  0  0  0  0
 22 24  1  0  0  0  0
 23 25  1  0  0  0  0
 24 26  1  0  0  0  0
 25 27  1  0  0  0  0
 26 28  1  0  0  0  0
 27 29  1  0  0  0  0
 30 31  2  0  0  0  0
 30 32  1  0  0  0  0
 31 33  1  0  0  0  0
 32 34  2  0  0  0  0
 33 35  2  0  0  0  0
 34 35  1  0  0  0  0
M  END
>  <INPUT>
DTXSID70464615

>  <FOUND_BY>
DSSTox_Substance_Id

>  <DTXSID>
DTXSID70464615

>  <PREFERRED_NAME>
4-(1H,1H,2H,2H-Perfluorodecylthio)phenol

>  <CASRN>
142623-70-9

>  <INCHIKEY>
HNEIKMUHLLYTLP-UHFFFAOYSA-N

>  <IUPAC_NAME>
4-[(3,3,4,4,5,5,6,6,7,7,8,8,9,9,10,10,10-Heptadecafluorodecyl)sulfanyl]phenol

>  <SMILES>
OC1=CC=C(SCCC(F)(F)C(F)(F)C(F)(F)C(F)(F)C(F)(F)C(F)(F)C(F)(F)C(F)(F)F)C=C1

>  <INCHI_STRING>
InChI=1S/C16H9F17OS/c17-9(18,5-6-35-8-3-1-7(34)2-4-8)10(19,20)11(21,22)12(23,24)13(25,26)14(27,28)15(29,30)16(31,32)33/h1-4,34H,5-6H2

>  <MOLECULAR_FORMULA>
C16H9F17OS

>  <AVERAGE_MASS>
572.28

>  <MONOISOTOPIC_MASS>
572.010264855

>  <MOL_FILE>
MOL_FILE

$$$$

  -INDIGO-02112615072D

 18 18  0  0  0  0  0  0  0  0999 V2000
   -1.0011    4.3689    0.0000 F   0  0  0  0  0  0  0  0  0  0  0  0
    0.0293    3.2245    0.0000 C   0  0  0  0  0  0  0  0  0  0  0  0
   -1.1151    2.1939    0.0000 F   0  0  0  0  0  0  0  0  0  0  0  0
    1.1738    4.2549    0.0000 F   0  0  0  0  0  0  0  0  0  0  0  0
    1.0599    2.0800    0.0000 C   0  0  0  0  0  0  0  0  0  0  0  0
    2.0903    3.2245    0.0000 F   0  0  0  0  0  0  0  0  0  0  0  0
    2.3057    1.1749    0.0000 C   0  0  0  0  0  0  0  0  0  0  0  0
    3.0757    2.5084    0.0000 F   0  0  0  0  0  0  0  0  0  0  0  0
    3.7126    0.5484    0.0000 F   0  0  0  0  0  0  0  0  0  0  0  0
    1.8299   -0.2899    0.0000 C   0  0  0  0  0  0  0  0  0  0  0  0
    3.3361   -0.6100    0.0000 F   0  0  0  0  0  0  0  0  0  0  0  0
    1.6688   -1.8213    0.0000 F   0  0  0  0  0  0  0  0  0  0  0  0
    0.2899   -0.2899    0.0000 C   0  0  0  0  0  0  0  0  0  0  0  0
    0.4508   -1.8213    0.0000 F   0  0  0  0  0  0  0  0  0  0  0  0
   -1.2165   -0.6100    0.0000 F   0  0  0  0  0  0  0  0  0  0  0  0
   -0.1861    1.1749    0.0000 C   0  0  0  0  0  0  0  0  0  0  0  0
   -1.6957    0.8704    0.0000 F   0  0  0  0  0  0  0  0  0  0  0  0
   -1.6957    1.4791    0.0000 F   0  0  0  0  0  0  0  0  0  0  0  0
  1  2  1  0  0  0  0
  2  3  1  0  0  0  0
  2  4  1  0  0  0  0
  2  5  1  0  0  0  0
  5  6  1  0  0  0  0
  5  7  1  0  0  0  0
  7  8  1  0  0  0  0
  7  9  1  0  0  0  0
  7 10  1  0  0  0  0
 10 11  1  0  0  0  0
 10 12  1  0  0  0  0
 10 13  1  0  0  0  0
 13 14  1  0  0  0  0
 13 15  1  0  0  0  0
 13 16  1  0  0  0  0
  5 16  1  0  0  0  0
 16 17  1  0  0  0  0
 16 18  1  0  0  0  0
M  END
>  <INPUT>
DTXSID7061982

>  <FOUND_BY>
DSSTox_Substance_Id

>  <DTXSID>
DTXSID7061982

>  <PREFERRED_NAME>
Perfluoromethylcyclopentane

>  <CASRN>
1805-22-7

>  <INCHIKEY>
BCNXQFASJTYKDJ-UHFFFAOYSA-N

>  <IUPAC_NAME>
Nonafluoro(trifluoromethyl)cyclopentane

>  <SMILES>
FC(F)(F)C1(F)C(F)(F)C(F)(F)C(F)(F)C1(F)F

>  <INCHI_STRING>
InChI=1S/C6F12/c7-1(6(16,17)18)2(8,9)4(12,13)5(14,15)3(1,10)11

>  <MOLECULAR_FORMULA>
C6F12

>  <AVERAGE_MASS>
300.047

>  <MONOISOTOPIC_MASS>
299.980837956

>  <MOL_FILE>
MOL_FILE

$$$$

  -INDIGO-02112615072D

 10  9  0  0  0  0  0  0  0  0999 V2000
    3.8500    4.0010    0.0000 F   0  0  0  0  0  0  0  0  0  0  0  0
    3.0800    2.6673    0.0000 C   0  0  0  0  0  0  0  0  0  0  0  0
    1.7463    3.4373    0.0000 F   0  0  0  0  0  0  0  0  0  0  0  0
    4.4137    1.8973    0.0000 F   0  0  0  0  0  0  0  0  0  0  0  0
    2.3100    1.3337    0.0000 C   0  0  0  0  0  0  0  0  0  0  0  0
    0.9763    2.1037    0.0000 F   0  0  0  0  0  0  0  0  0  0  0  0
    3.6437    0.5637    0.0000 F   0  0  0  0  0  0  0  0  0  0  0  0
    1.5400    0.0000    0.0000 C   0  0  0  0  0  0  0  0  0  0  0  0
    2.3100   -1.3337    0.0000 O   0  0  0  0  0  0  0  0  0  0  0  0
    0.0000    0.0000    0.0000 O   0  0  0  0  0  0  0  0  0  0  0  0
  1  2  1  0  0  0  0
  2  3  1  0  0  0  0
  2  4  1  0  0  0  0
  2  5  1  0  0  0  0
  5  6  1  0  0  0  0
  5  7  1  0  0  0  0
  5  8  1  0  0  0  0
  8  9  1  0  0  0  0
  8 10  1  0  0  0  0
M  END
>  <INPUT>
DTXSID9059969

>  <FOUND_BY>
DSSTox_Substance_Id

>  <DTXSID>
DTXSID9059969

>  <PREFERRED_NAME>
1H-Perfluoro-1,1-propanediol

>  <CASRN>
422-63-9

>  <INCHIKEY>
BQAOCAJBGDDVSL-UHFFFAOYSA-N

>  <IUPAC_NAME>
2,2,3,3,3-Pentafluoropropane-1,1-diol

>  <SMILES>
OC(O)C(F)(F)C(F)(F)F

>  <INCHI_STRING>
InChI=1S/C3H3F5O2/c4-2(5,1(9)10)3(6,7)8/h1,9-10H

>  <MOLECULAR_FORMULA>
C3H3F5O2

>  <AVERAGE_MASS>
166.047

>  <MONOISOTOPIC_MASS>
166.005320152

>  <MOL_FILE>
MOL_FILE

$$$$

  -INDIGO-02112615072D

 10  9  0  0  0  0  0  0  0  0999 V2000
    4.2350   -2.4887    0.0000 O   0  0  0  0  0  0  0  0  0  0  0  0
    3.4650   -1.1550    0.0000 C   0  0  0  0  0  0  0  0  0  0  0  0
    4.2350    0.1787    0.0000 O   0  0  0  0  0  0  0  0  0  0  0  0
    1.9250   -1.1550    0.0000 C   0  0  0  0  0  0  0  0  0  0  0  0
    1.9250    0.3850    0.0000 F   0  0  0  0  0  0  0  0  0  0  0  0
    1.9250   -2.6950    0.0000 F   0  0  0  0  0  0  0  0  0  0  0  0
    0.3850   -1.1550    0.0000 C   0  0  0  0  0  0  0  0  0  0  0  0
   -1.1550   -1.1550    0.0000 F   0  0  0  0  0  0  0  0  0  0  0  0
    0.3850    0.3850    0.0000 F   0  0  0  0  0  0  0  0  0  0  0  0
    0.3850   -2.6950    0.0000 F   0  0  0  0  0  0  0  0  0  0  0  0
  1  2  2  0  0  0  0
  2  3  1  0  0  0  0
  2  4  1  0  0  0  0
  4  5  1  0  0  0  0
  4  6  1  0  0  0  0
  4  7  1  0  0  0  0
  7  8  1  0  0  0  0
  7  9  1  0  0  0  0
  7 10  1  0  0  0  0
M  END
>  <INPUT>
DTXSID8059970

>  <FOUND_BY>
DSSTox_Substance_Id

>  <DTXSID>
DTXSID8059970

>  <PREFERRED_NAME>
Perfluoropropanoic acid

>  <CASRN>
422-64-0

>  <INCHIKEY>
LRMSQVBRUNSOJL-UHFFFAOYSA-N

>  <IUPAC_NAME>
Pentafluoropropanoic acid

>  <SMILES>
OC(=O)C(F)(F)C(F)(F)F

>  <INCHI_STRING>
InChI=1S/C3HF5O2/c4-2(5,1(9)10)3(6,7)8/h(H,9,10)


>  <MOLECULAR_FORMULA>
C3HF5O2

>  <AVERAGE_MASS>
164.031

>  <MONOISOTOPIC_MASS>
163.989670087

>  <MOL_FILE>
MOL_FILE

$$$$

  -INDIGO-02112615072D

  8  7  0  0  0  0  0  0  0  0999 V2000
    3.0800   -0.4881    0.0000 I   0  0  0  0  0  0  0  0  0  0  0  0
    4.9775    0.8454    0.0000 F   0  0  0  0  0  0  0  0  0  0  0  0
    6.5175   -1.8219    0.0000 F   0  0  0  0  0  0  0  0  0  0  0  0
    8.4149   -0.4881    0.0000 F   0  0  0  0  0  0  0  0  0  0  0  0
    7.0812    1.8219    0.0000 F   0  0  0  0  0  0  0  0  0  0  0  0
    5.7475   -0.4881    0.0000 C   0  0  0  0  0  0  0  0  0  0  0  0
    7.0812    0.2819    0.0000 C   0  0  0  0  0  0  0  0  0  0  0  0
    4.4137   -1.2581    0.0000 C   0  0  0  0  0  0  0  0  0  0  0  0
  1  8  1  0  0  0  0
  2  6  1  0  0  0  0
  3  6  1  0  0  0  0
  4  7  1  0  0  0  0
  5  7  1  0  0  0  0
  6  7  1  0  0  0  0
  6  8  1  0  0  0  0
M  END
>  <INPUT>
DTXSID40337468

>  <FOUND_BY>
DSSTox_Substance_Id

>  <DTXSID>
DTXSID40337468

>  <PREFERRED_NAME>
1,1,2,2-Tetrafluoro-3-iodopropane

>  <CASRN>
679-87-8

>  <INCHIKEY>
VOUMUNAZCCDSHT-UHFFFAOYSA-N

>  <IUPAC_NAME>
1,1,2,2-Tetrafluoro-3-iodopropane

>  <SMILES>
FC(F)C(F)(F)CI

>  <INCHI_STRING>
InChI=1S/C3H3F4I/c4-2(5)3(6,7)1-8/h2H,1H2

>  <MOLECULAR_FORMULA>
C3H3F4I

>  <AVERAGE_MASS>
241.955

>  <MONOISOTOPIC_MASS>
241.92156

>  <MOL_FILE>
MOL_FILE

$$$$

  -INDIGO-02112615072D

 13 12  0  0  0  0  0  0  0  0999 V2000
    3.0800   -1.2581    0.0000 F   0  0  0  0  0  0  0  0  0  0  0  0
    3.6437    0.8454    0.0000 F   0  0  0  0  0  0  0  0  0  0  0  0
    5.1837   -1.8219    0.0000 F   0  0  0  0  0  0  0  0  0  0  0  0
   11.0824   -1.2581    0.0000 F   0  0  0  0  0  0  0  0  0  0  0  0
   10.5187    0.8454    0.0000 F   0  0  0  0  0  0  0  0  0  0  0  0
    8.9785   -1.8219    0.0000 F   0  0  0  0  0  0  0  0  0  0  0  0
    8.4149    1.8219    0.0000 O   0  0  0  0  0  0  0  0  0  0  0  0
    5.7475    1.8219    0.0000 O   0  0  0  0  0  0  0  0  0  0  0  0
    7.0812   -0.4881    0.0000 N   0  0  0  0  0  0  0  0  0  0  0  0
    8.4149    0.2819    0.0000 C   0  0  0  0  0  0  0  0  0  0  0  0
    5.7475    0.2819    0.0000 C   0  0  0  0  0  0  0  0  0  0  0  0
    9.7485   -0.4881    0.0000 C   0  0  0  0  0  0  0  0  0  0  0  0
    4.4137   -0.4881    0.0000 C   0  0  0  0  0  0  0  0  0  0  0  0
  1 13  1  0  0  0  0
  2 13  1  0  0  0  0
  3 13  1  0  0  0  0
  4 12  1  0  0  0  0
  5 12  1  0  0  0  0
  6 12  1  0  0  0  0
  7 10  2  0  0  0  0
  8 11  2  0  0  0  0
  9 10  1  0  0  0  0
  9 11  1  0  0  0  0
 10 12  1  0  0  0  0
 11 13  1  0  0  0  0
M  END
>  <INPUT>
DTXSID10193674

>  <FOUND_BY>
DSSTox_Substance_Id

>  <DTXSID>
DTXSID10193674

>  <PREFERRED_NAME>
Perfluorodiacetamide

>  <CASRN>
407-24-9

>  <INCHIKEY>
GMQVFHZSXKJCIV-UHFFFAOYSA-N

>  <IUPAC_NAME>
2,2,2-Trifluoro-N-(trifluoroacetyl)acetamide

>  <SMILES>
FC(F)(F)C(=O)NC(=O)C(F)(F)F

>  <INCHI_STRING>
InChI=1S/C4HF6NO2/c5-3(6,7)1(12)11-2(13)4(8,9)10/h(H,11,12,13)

>  <MOLECULAR_FORMULA>
C4HF6NO2

>  <AVERAGE_MASS>
209.047

>  <MONOISOTOPIC_MASS>
208.991147254

>  <MOL_FILE>
MOL_FILE

$$$$

  -INDIGO-02112615072D

 32 31  0  0  0  0  0  0  0  0999 V2000
    1.5400  -15.4000    0.0000 F   0  0  0  0  0  0  0  0  0  0  0  0
    1.5400  -13.8600    0.0000 C   0  0  0  0  0  0  0  0  0  0  0  0
    3.0800  -13.8600    0.0000 F   0  0  0  0  0  0  0  0  0  0  0  0
    0.0000  -13.8600    0.0000 F   0  0  0  0  0  0  0  0  0  0  0  0
    1.5400  -12.3200    0.0000 C   0  0  0  0  0  0  0  0  0  0  0  0
    3.0800  -12.3200    0.0000 F   0  0  0  0  0  0  0  0  0  0  0  0
    0.0000  -12.3200    0.0000 F   0  0  0  0  0  0  0  0  0  0  0  0
    1.5400  -10.7800    0.0000 C   0  0  0  0  0  0  0  0  0  0  0  0
    3.0800  -10.7800    0.0000 F   0  0  0  0  0  0  0  0  0  0  0  0
    0.0000  -10.7800    0.0000 F   0  0  0  0  0  0  0  0  0  0  0  0
    1.5400   -9.2400    0.0000 C   0  0  0  0  0  0  0  0  0  0  0  0
    3.0800   -9.2400    0.0000 F   0  0  0  0  0  0  0  0  0  0  0  0
    0.0000   -9.2400    0.0000 F   0  0  0  0  0  0  0  0  0  0  0  0
    1.5400   -7.7000    0.0000 C   0  0  0  0  0  0  0  0  0  0  0  0
    3.0800   -7.7000    0.0000 F   0  0  0  0  0  0  0  0  0  0  0  0
    0.0000   -7.7000    0.0000 F   0  0  0  0  0  0  0  0  0  0  0  0
    1.5400   -6.1600    0.0000 C   0  0  0  0  0  0  0  0  0  0  0  0
    3.0800   -6.1600    0.0000 F   0  0  0  0  0  0  0  0  0  0  0  0
    0.0000   -6.1600    0.0000 F   0  0  0  0  0  0  0  0  0  0  0  0
    1.5400   -4.6200    0.0000 C   0  0  0  0  0  0  0  0  0  0  0  0
    3.0800   -4.6200    0.0000 F   0  0  0  0  0  0  0  0  0  0  0  0
    0.0000   -4.6200    0.0000 F   0  0  0  0  0  0  0  0  0  0  0  0
    1.5400   -3.0800    0.0000 C   0  0  0  0  0  0  0  0  0  0  0  0
    3.0800   -3.0800    0.0000 F   0  0  0  0  0  0  0  0  0  0  0  0
    0.0000   -3.0800    0.0000 F   0  0  0  0  0  0  0  0  0  0  0  0
    1.5400   -1.5400    0.0000 C   0  0  0  0  0  0  0  0  0  0  0  0
    3.0800   -1.5400    0.0000 F   0  0  0  0  0  0  0  0  0  0  0  0
    0.0000   -1.5400    0.0000 F   0  0  0  0  0  0  0  0  0  0  0  0
    1.5400    0.0000    0.0000 C   0  0  0  0  0  0  0  0  0  0  0  0
    1.5400    1.5400    0.0000 F   0  0  0  0  0  0  0  0  0  0  0  0
    3.0800    0.0000    0.0000 F   0  0  0  0  0  0  0  0  0  0  0  0
    0.0000    0.0000    0.0000 I   0  0  0  0  0  0  0  0  0  0  0  0
  1  2  1  0  0  0  0
  2  3  1  0  0  0  0
  2  4  1  0  0  0  0
  2  5  1  0  0  0  0
  5  6  1  0  0  0  0
  5  7  1  0  0  0  0
  5  8  1  0  0  0  0
  8  9  1  0  0  0  0
  8 10  1  0  0  0  0
  8 11  1  0  0  0  0
 11 12  1  0  0  0  0
 11 13  1  0  0  0  0
 11 14  1  0  0  0  0
 14 15  1  0  0  0  0
 14 16  1  0  0  0  0
 14 17  1  0  0  0  0
 17 18  1  0  0  0  0
 17 19  1  0  0  0  0
 17 20  1  0  0  0  0
 20 21  1  0  0  0  0
 20 22  1  0  0  0  0
 20 23  1  0  0  0  0
 23 24  1  0  0  0  0
 23 25  1  0  0  0  0
 23 26  1  0  0  0  0
 26 27  1  0  0  0  0
 26 28  1  0  0  0  0
 26 29  1  0  0  0  0
 29 30  1  0  0  0  0
 29 31  1  0  0  0  0
 29 32  1  0  0  0  0
M  END
>  <INPUT>
DTXSID8059974

>  <FOUND_BY>
DSSTox_Substance_Id

>  <DTXSID>
DTXSID8059974

>  <PREFERRED_NAME>
Perfluorodecyl iodide

>  <CASRN>
423-62-1

>  <INCHIKEY>
UDWBMXSQHOHKOI-UHFFFAOYSA-N

>  <IUPAC_NAME>
1,1,1,2,2,3,3,4,4,5,5,6,6,7,7,8,8,9,9,10,10-Henicosafluoro-10-iododecane

>  <SMILES>
FC(F)(F)C(F)(F)C(F)(F)C(F)(F)C(F)(F)C(F)(F)C(F)(F)C(F)(F)C(F)(F)C(F)(F)I

>  <INCHI_STRING>
InChI=1S/C10F21I/c11-1(12,3(15,16)5(19,20)7(23,24)9(27,28)29)2(13,14)4(17,18)6(21,22)8(25,26)10(30,31)32

>  <MOLECULAR_FORMULA>
C10F21I

>  <AVERAGE_MASS>
645.981

>  <MONOISOTOPIC_MASS>
645.87094

>  <MOL_FILE>
MOL_FILE

$$$$

  -INDIGO-02112615072D

 32 31  0  0  0  0  0  0  0  0999 V2000
    3.0800   -4.2351    0.0000 Br  0  0  0  0  0  0  0  0  0  0  0  0
    8.9785    0.9486    0.0000 F   0  0  0  0  0  0  0  0  0  0  0  0
   10.5187   -1.7186    0.0000 F   0  0  0  0  0  0  0  0  0  0  0  0
   11.8524   -0.9486    0.0000 F   0  0  0  0  0  0  0  0  0  0  0  0
   10.3124    1.7186    0.0000 F   0  0  0  0  0  0  0  0  0  0  0  0
    7.6449    0.1786    0.0000 F   0  0  0  0  0  0  0  0  0  0  0  0
    9.1849   -2.4886    0.0000 F   0  0  0  0  0  0  0  0  0  0  0  0
   13.1861   -0.1786    0.0000 F   0  0  0  0  0  0  0  0  0  0  0  0
   11.6461    2.4886    0.0000 F   0  0  0  0  0  0  0  0  0  0  0  0
    6.3112   -0.5914    0.0000 F   0  0  0  0  0  0  0  0  0  0  0  0
    7.8512   -3.2586    0.0000 F   0  0  0  0  0  0  0  0  0  0  0  0
   14.5197    0.5914    0.0000 F   0  0  0  0  0  0  0  0  0  0  0  0
   12.9797    3.2586    0.0000 F   0  0  0  0  0  0  0  0  0  0  0  0
    4.9775   -1.3614    0.0000 F   0  0  0  0  0  0  0  0  0  0  0  0
    6.5175   -4.0286    0.0000 F   0  0  0  0  0  0  0  0  0  0  0  0
   15.8534    1.3614    0.0000 F   0  0  0  0  0  0  0  0  0  0  0  0
   14.3134    4.0286    0.0000 F   0  0  0  0  0  0  0  0  0  0  0  0
    3.6437   -2.1314    0.0000 F   0  0  0  0  0  0  0  0  0  0  0  0
    5.1837   -4.7988    0.0000 F   0  0  0  0  0  0  0  0  0  0  0  0
   17.7509    4.2351    0.0000 F   0  0  0  0  0  0  0  0  0  0  0  0
   17.1873    2.1314    0.0000 F   0  0  0  0  0  0  0  0  0  0  0  0
   15.6471    4.7988    0.0000 F   0  0  0  0  0  0  0  0  0  0  0  0
    9.7485   -0.3851    0.0000 C   0  0  0  0  0  0  0  0  0  0  0  0
   11.0824    0.3851    0.0000 C   0  0  0  0  0  0  0  0  0  0  0  0
    8.4149   -1.1551    0.0000 C   0  0  0  0  0  0  0  0  0  0  0  0
   12.4161    1.1551    0.0000 C   0  0  0  0  0  0  0  0  0  0  0  0
    7.0812   -1.9251    0.0000 C   0  0  0  0  0  0  0  0  0  0  0  0
   13.7497    1.9251    0.0000 C   0  0  0  0  0  0  0  0  0  0  0  0
    5.7475   -2.6951    0.0000 C   0  0  0  0  0  0  0  0  0  0  0  0
   15.0834    2.6951    0.0000 C   0  0  0  0  0  0  0  0  0  0  0  0
    4.4137   -3.4651    0.0000 C   0  0  0  0  0  0  0  0  0  0  0  0
   16.4171    3.4651    0.0000 C   0  0  0  0  0  0  0  0  0  0  0  0
  1 31  1  0  0  0  0
  2 23  1  0  0  0  0
  3 23  1  0  0  0  0
  4 24  1  0  0  0  0
  5 24  1  0  0  0  0
  6 25  1  0  0  0  0
  7 25  1  0  0  0  0
  8 26  1  0  0  0  0
  9 26  1  0  0  0  0
 10 27  1  0  0  0  0
 11 27  1  0  0  0  0
 12 28  1  0  0  0  0
 13 28  1  0  0  0  0
 14 29  1  0  0  0  0
 15 29  1  0  0  0  0
 16 30  1  0  0  0  0
 17 30  1  0  0  0  0
 18 31  1  0  0  0  0
 19 31  1  0  0  0  0
 20 32  1  0  0  0  0
 21 32  1  0  0  0  0
 22 32  1  0  0  0  0
 23 24  1  0  0  0  0
 23 25  1  0  0  0  0
 24 26  1  0  0  0  0
 25 27  1  0  0  0  0
 26 28  1  0  0  0  0
 27 29  1  0  0  0  0
 28 30  1  0  0  0  0
 29 31  1  0  0  0  0
 30 32  1  0  0  0  0
M  END
>  <INPUT>
DTXSID70184725

>  <FOUND_BY>
DSSTox_Substance_Id

>  <DTXSID>
DTXSID70184725

>  <PREFERRED_NAME>
Perflubrodec

>  <CASRN>
307-43-7

>  <INCHIKEY>
JCAULFRGWRHHIG-UHFFFAOYSA-N

>  <IUPAC_NAME>
1-Bromo-1,1,2,2,3,3,4,4,5,5,6,6,7,7,8,8,9,9,10,10,10-henicosafluorodecane

>  <SMILES>
FC(F)(F)C(F)(F)C(F)(F)C(F)(F)C(F)(F)C(F)(F)C(F)(F)C(F)(F)C(F)(F)C(F)(F)Br

>  <INCHI_STRING>
InChI=1S/C10BrF21/c11-9(28,29)7(24,25)5(20,21)3(16,17)1(12,13)2(14,15)4(18,19)6(22,23)8(26,27)10(30,31)32

>  <MOLECULAR_FORMULA>
C10BrF21

>  <AVERAGE_MASS>
598.98

>  <MONOISOTOPIC_MASS>
597.884804

>  <MOL_FILE>
MOL_FILE

$$$$

  -INDIGO-02112615072D

 15 14  0  0  0  0  0  0  0  0999 V2000
   -2.5509    0.8734    0.0000 C   0  0  0  0  0  0  0  0  0  0  0  0
   -1.0109    0.8734    0.0000 C   0  0  0  0  0  0  0  0  0  0  0  0
    0.5291    0.8735    0.0000 C   0  0  0  0  0  0  0  0  0  0  0  0
    1.2991   -0.4602    0.0000 C   0  0  0  0  0  0  0  0  0  0  0  0
    2.8391   -0.4602    0.0000 C   0  0  0  0  0  0  0  0  0  0  0  0
   -4.0910    0.8734    0.0000 F   0  0  0  0  0  0  0  0  0  0  0  0
   -2.5509   -0.6666    0.0000 F   0  0  0  0  0  0  0  0  0  0  0  0
   -2.5509    2.4135    0.0000 F   0  0  0  0  0  0  0  0  0  0  0  0
   -1.0109   -0.6666    0.0000 F   0  0  0  0  0  0  0  0  0  0  0  0
   -1.0110    2.4135    0.0000 F   0  0  0  0  0  0  0  0  0  0  0  0
    1.2990    2.2070    0.0000 F   0  0  0  0  0  0  0  0  0  0  0  0
    0.5291   -1.7940    0.0000 F   0  0  0  0  0  0  0  0  0  0  0  0
    4.3791   -0.4602    0.0000 F   0  0  0  0  0  0  0  0  0  0  0  0
    2.8391   -2.0003    0.0000 F   0  0  0  0  0  0  0  0  0  0  0  0
    2.8391    1.0797    0.0000 F   0  0  0  0  0  0  0  0  0  0  0  0
  2  1  1  0  0  0  0
  6  1  1  0  0  0  0
  7  1  1  0  0  0  0
  8  1  1  0  0  0  0
  3  2  1  0  0  0  0
  9  2  1  0  0  0  0
 10  2  1  0  0  0  0
  4  3  1  0  0  0  0
  3 11  1  0  0  0  0
  5  4  1  0  0  0  0
  4 12  1  0  0  0  0
 13  5  1  0  0  0  0
 14  5  1  0  0  0  0
 15  5  1  0  0  0  0
M  END
>  <INPUT>
DTXSID30869884

>  <FOUND_BY>
DSSTox_Substance_Id

>  <DTXSID>
DTXSID30869884

>  <PREFERRED_NAME>
2H,3H-Perfluoropentane

>  <CASRN>
138495-42-8

>  <INCHIKEY>
RIQRGMUSBYGDBL-UHFFFAOYNA-N

>  <IUPAC_NAME>
1,1,1,2,2,3,4,5,5,5-Decafluoropentane

>  <SMILES>
FC(C(F)C(F)(F)C(F)(F)F)C(F)(F)F

>  <INCHI_STRING>
InChI=1/C5H2F10/c6-1(2(7)4(10,11)12)3(8,9)5(13,14)15/h1-2H


>  <MOLECULAR_FORMULA>
C5H2F10

>  <AVERAGE_MASS>
252.055

>  <MONOISOTOPIC_MASS>
251.999681694

>  <MOL_FILE>
MOL_FILE

$$$$

  -INDIGO-02112615072D

 16 15  0  0  0  0  0  0  0  0999 V2000
    1.5400   -2.6673    0.0000 O   0  0  0  0  0  0  0  0  0  0  0  0
    2.3100   -1.3336    0.0000 C   0  0  0  0  0  0  0  0  0  0  0  0
    3.8500   -1.3336    0.0000 O   0  0  0  0  0  0  0  0  0  0  0  0
    4.6200   -2.6673    0.0000 C   0  0  0  0  0  0  0  0  0  0  0  0
    6.1600   -2.6673    0.0000 C   0  0  0  0  0  0  0  0  0  0  0  0
    6.1600   -1.1273    0.0000 F   0  0  0  0  0  0  0  0  0  0  0  0
    6.1600   -4.2073    0.0000 F   0  0  0  0  0  0  0  0  0  0  0  0
    7.7000   -2.6673    0.0000 C   0  0  0  0  0  0  0  0  0  0  0  0
    7.7000   -1.1273    0.0000 F   0  0  0  0  0  0  0  0  0  0  0  0
    7.7000   -4.2073    0.0000 F   0  0  0  0  0  0  0  0  0  0  0  0
    9.2400   -2.6673    0.0000 C   0  0  0  0  0  0  0  0  0  0  0  0
   10.7800   -2.6673    0.0000 F   0  0  0  0  0  0  0  0  0  0  0  0
    9.2400   -1.1273    0.0000 F   0  0  0  0  0  0  0  0  0  0  0  0
    9.2400   -4.2073    0.0000 F   0  0  0  0  0  0  0  0  0  0  0  0
    1.5400    0.0001    0.0000 C   0  0  0  0  0  0  0  0  0  0  0  0
    0.0000    0.0001    0.0000 C   0  0  0  0  0  0  0  0  0  0  0  0
  1  2  2  0  0  0  0
  2  3  1  0  0  0  0
  3  4  1  0  0  0  0
  4  5  1  0  0  0  0
  5  6  1  0  0  0  0
  5  7  1  0  0  0  0
  5  8  1  0  0  0  0
  8  9  1  0  0  0  0
  8 10  1  0  0  0  0
  8 11  1  0  0  0  0
 11 12  1  0  0  0  0
 11 13  1  0  0  0  0
 11 14  1  0  0  0  0
  2 15  1  0  0  0  0
 15 16  2  0  0  0  0
M  END
>  <INPUT>
DTXSID8059978

>  <FOUND_BY>
DSSTox_Substance_Id

>  <DTXSID>
DTXSID8059978

>  <PREFERRED_NAME>
1H,1H-Perfluorobutyl acrylate

>  <CASRN>
424-64-6

>  <INCHIKEY>
PLXOUIVCSUBZIX-UHFFFAOYSA-N

>  <IUPAC_NAME>
2,2,3,3,4,4,4-Heptafluorobutyl prop-2-enoate

>  <SMILES>
FC(F)(F)C(F)(F)C(F)(F)COC(=O)C=C

>  <INCHI_STRING>
InChI=1S/C7H5F7O2/c1-2-4(15)16-3-5(8,9)6(10,11)7(12,13)14/h2H,1,3H2


>  <MOLECULAR_FORMULA>
C7H5F7O2

>  <AVERAGE_MASS>
254.104

>  <MONOISOTOPIC_MASS>
254.017776542

>  <MOL_FILE>
MOL_FILE

$$$$

  -INDIGO-02112615072D

 33 32  0  0  0  0  0  0  0  0999 V2000
    7.0058   -2.5729    0.0000 C   0  0  0  0  0  0  0  0  0  0  0  0
    8.5458   -2.5729    0.0000 C   0  0  0  0  0  0  0  0  0  0  0  0
   10.0858   -2.5729    0.0000 C   0  0  0  0  0  0  0  0  0  0  0  0
   11.6257   -2.5729    0.0000 C   0  0  0  0  0  0  0  0  0  0  0  0
   13.1657   -2.5729    0.0000 C   0  0  0  0  0  0  0  0  0  0  0  0
   14.7057   -2.5729    0.0000 C   0  0  0  0  0  0  0  0  0  0  0  0
   16.2457   -2.5729    0.0000 C   0  0  0  0  0  0  0  0  0  0  0  0
   17.7857   -2.5729    0.0000 C   0  0  0  0  0  0  0  0  0  0  0  0
    5.4658   -2.5729    0.0000 S   0  0  0  0  0  0  0  0  0  0  0  0
    5.4658   -1.0329    0.0000 O   0  0  0  0  0  0  0  0  0  0  0  0
    5.4658   -4.1128    0.0000 O   0  0  0  0  0  0  0  0  0  0  0  0
    3.9258   -2.5729    0.0000 N   0  0  0  0  0  0  0  0  0  0  0  0
    7.0058   -1.0329    0.0000 F   0  0  0  0  0  0  0  0  0  0  0  0
    7.0058   -4.1128    0.0000 F   0  0  0  0  0  0  0  0  0  0  0  0
    8.5458   -1.0329    0.0000 F   0  0  0  0  0  0  0  0  0  0  0  0
    8.5458   -4.1128    0.0000 F   0  0  0  0  0  0  0  0  0  0  0  0
   10.0858   -1.0329    0.0000 F   0  0  0  0  0  0  0  0  0  0  0  0
   10.0858   -4.1128    0.0000 F   0  0  0  0  0  0  0  0  0  0  0  0
   11.6257   -1.0329    0.0000 F   0  0  0  0  0  0  0  0  0  0  0  0
   11.6257   -4.1128    0.0000 F   0  0  0  0  0  0  0  0  0  0  0  0
   13.1657   -1.0329    0.0000 F   0  0  0  0  0  0  0  0  0  0  0  0
   13.1657   -4.1128    0.0000 F   0  0  0  0  0  0  0  0  0  0  0  0
   14.7057   -1.0329    0.0000 F   0  0  0  0  0  0  0  0  0  0  0  0
   14.7057   -4.1128    0.0000 F   0  0  0  0  0  0  0  0  0  0  0  0
   16.2457   -1.0329    0.0000 F   0  0  0  0  0  0  0  0  0  0  0  0
   16.2457   -4.1128    0.0000 F   0  0  0  0  0  0  0  0  0  0  0  0
   19.3257   -2.5729    0.0000 F   0  0  0  0  0  0  0  0  0  0  0  0
   17.7857   -1.0329    0.0000 F   0  0  0  0  0  0  0  0  0  0  0  0
   17.7857   -4.1128    0.0000 F   0  0  0  0  0  0  0  0  0  0  0  0
    3.1559   -3.9065    0.0000 C   0  0  0  0  0  0  0  0  0  0  0  0
    1.6159   -3.9065    0.0000 C   0  0  0  0  0  0  0  0  0  0  0  0
    0.8459   -5.2402    0.0000 O   0  0  0  0  0  0  0  0  0  0  0  0
    3.1558   -1.2393    0.0000 C   0  0  0  0  0  0  0  0  0  0  0  0
  1  2  1  0  0  0  0
  1  9  1  0  0  0  0
  1 13  1  0  0  0  0
  1 14  1  0  0  0  0
  2  3  1  0  0  0  0
  2 15  1  0  0  0  0
  2 16  1  0  0  0  0
  3  4  1  0  0  0  0
  3 17  1  0  0  0  0
  3 18  1  0  0  0  0
  4  5  1  0  0  0  0
  4 19  1  0  0  0  0
  4 20  1  0  0  0  0
  5  6  1  0  0  0  0
  5 21  1  0  0  0  0
  5 22  1  0  0  0  0
  6  7  1  0  0  0  0
  6 23  1  0  0  0  0
  6 24  1  0  0  0  0
  7  8  1  0  0  0  0
  7 25  1  0  0  0  0
  7 26  1  0  0  0  0
  8 27  1  0  0  0  0
  8 28  1  0  0  0  0
  8 29  1  0  0  0  0
  9 10  2  0  0  0  0
  9 12  1  0  0  0  0
  9 11  2  0  0  0  0
 12 30  1  0  0  0  0
 12 33  1  0  0  0  0
 30 31  1  0  0  0  0
 31 32  1  0  0  0  0
M  END
>  <INPUT>
DTXSID7027831

>  <FOUND_BY>
DSSTox_Substance_Id

>  <DTXSID>
DTXSID7027831

>  <PREFERRED_NAME>
N-Methyl-N-(2-hydroxyethyl)perfluorooctanesulfonamide

>  <CASRN>
24448-09-7

>  <INCHIKEY>
PLGACQRCZCVKGK-UHFFFAOYSA-N

>  <IUPAC_NAME>
1,1,2,2,3,3,4,4,5,5,6,6,7,7,8,8,8-Heptadecafluoro-N-(2-hydroxyethyl)-N-methyloctane-1-sulfonamide

>  <SMILES>
CN(CCO)S(=O)(=O)C(F)(F)C(F)(F)C(F)(F)C(F)(F)C(F)(F)C(F)(F)C(F)(F)C(F)(F)F

>  <INCHI_STRING>
InChI=1S/C11H8F17NO3S/c1-29(2-3-30)33(31,32)11(27,28)9(22,23)7(18,19)5(14,15)4(12,13)6(16,17)8(20,21)10(24,25)26/h30H,2-3H2,1H3


>  <MOLECULAR_FORMULA>
C11H8F17NO3S

>  <AVERAGE_MASS>
557.22

>  <MONOISOTOPIC_MASS>
556.995343067

>  <MOL_FILE>
MOL_FILE

$$$$

  -INDIGO-02112615072D

 10  9  0  0  0  0  0  0  0  0999 V2000
    6.9300   -1.3337    0.0000 F   0  0  0  0  0  0  0  0  0  0  0  0
    5.3900   -1.3337    0.0000 C   0  0  0  0  0  0  0  0  0  0  0  0
    5.3900    0.2063    0.0000 F   0  0  0  0  0  0  0  0  0  0  0  0
    5.3900   -2.8737    0.0000 Br  0  0  0  0  0  0  0  0  0  0  0  0
    3.8500   -1.3337    0.0000 C   0  0  0  0  0  0  0  0  0  0  0  0
    3.8500    0.2063    0.0000 F   0  0  0  0  0  0  0  0  0  0  0  0
    3.8500   -2.8737    0.0000 F   0  0  0  0  0  0  0  0  0  0  0  0
    2.3100   -1.3337    0.0000 C   0  0  0  0  0  0  0  0  0  0  0  0
    1.5400    0.0000    0.0000 C   0  0  0  0  0  0  0  0  0  0  0  0
    0.0000    0.0000    0.0000 Br  0  0  0  0  0  0  0  0  0  0  0  0
  1  2  1  0  0  0  0
  2  3  1  0  0  0  0
  2  4  1  0  0  0  0
  2  5  1  0  0  0  0
  5  6  1  0  0  0  0
  5  7  1  0  0  0  0
  5  8  1  0  0  0  0
  8  9  1  0  0  0  0
  9 10  1  0  0  0  0
M  END
>  <INPUT>
DTXSID9066388

>  <FOUND_BY>
DSSTox_Substance_Id

>  <DTXSID>
DTXSID9066388

>  <PREFERRED_NAME>
1,4-Dibromo-1,1,2,2-tetrafluorobutane

>  <CASRN>
18599-20-7

>  <INCHIKEY>
ASHCDEYFCNWSTR-UHFFFAOYSA-N

>  <IUPAC_NAME>
1,4-Dibromo-1,1,2,2-tetrafluorobutane

>  <SMILES>
FC(F)(Br)C(F)(F)CCBr

>  <INCHI_STRING>
InChI=1S/C4H4Br2F4/c5-2-1-3(7,8)4(6,9)10/h1-2H2

>  <MOLECULAR_FORMULA>
C4H4Br2F4

>  <AVERAGE_MASS>
287.878

>  <MONOISOTOPIC_MASS>
285.861589

>  <MOL_FILE>
MOL_FILE

$$$$

  -INDIGO-02112615072D

 31 30  0  0  0  0  0  0  0  0999 V2000
   12.9797    1.3337    0.0000 F   0  0  0  0  0  0  0  0  0  0  0  0
   14.5197   -1.3337    0.0000 F   0  0  0  0  0  0  0  0  0  0  0  0
   11.6461    0.5637    0.0000 F   0  0  0  0  0  0  0  0  0  0  0  0
   13.1861   -2.1037    0.0000 F   0  0  0  0  0  0  0  0  0  0  0  0
   14.3134    2.1037    0.0000 F   0  0  0  0  0  0  0  0  0  0  0  0
   15.8534   -0.5637    0.0000 F   0  0  0  0  0  0  0  0  0  0  0  0
   10.3124   -0.2065    0.0000 F   0  0  0  0  0  0  0  0  0  0  0  0
   11.8524   -2.8737    0.0000 F   0  0  0  0  0  0  0  0  0  0  0  0
   17.1873    0.2065    0.0000 F   0  0  0  0  0  0  0  0  0  0  0  0
   15.6471    2.8737    0.0000 F   0  0  0  0  0  0  0  0  0  0  0  0
    8.9785   -0.9765    0.0000 F   0  0  0  0  0  0  0  0  0  0  0  0
   10.5187   -3.6437    0.0000 F   0  0  0  0  0  0  0  0  0  0  0  0
   18.5209    0.9765    0.0000 F   0  0  0  0  0  0  0  0  0  0  0  0
   16.9809    3.6437    0.0000 F   0  0  0  0  0  0  0  0  0  0  0  0
   20.4182    2.3100    0.0000 F   0  0  0  0  0  0  0  0  0  0  0  0
   19.0846    4.6202    0.0000 F   0  0  0  0  0  0  0  0  0  0  0  0
    7.0812   -2.3100    0.0000 O   0  0  0  0  0  0  0  0  0  0  0  0
    5.7475   -4.6202    0.0000 O   0  0  0  0  0  0  0  0  0  0  0  0
   13.7497    0.0000    0.0000 C   0  0  0  0  0  0  0  0  0  0  0  0
   12.4161   -0.7700    0.0000 C   0  0  0  0  0  0  0  0  0  0  0  0
   15.0834    0.7700    0.0000 C   0  0  0  0  0  0  0  0  0  0  0  0
   11.0824   -1.5400    0.0000 C   0  0  0  0  0  0  0  0  0  0  0  0
   16.4171    1.5400    0.0000 C   0  0  0  0  0  0  0  0  0  0  0  0
    9.7485   -2.3100    0.0000 C   0  0  0  0  0  0  0  0  0  0  0  0
   17.7509    2.3100    0.0000 C   0  0  0  0  0  0  0  0  0  0  0  0
    8.4149   -3.0800    0.0000 C   0  0  0  0  0  0  0  0  0  0  0  0
   19.0846    3.0800    0.0000 C   0  0  0  0  0  0  0  0  0  0  0  0
    5.7475   -3.0800    0.0000 C   0  0  0  0  0  0  0  0  0  0  0  0
    4.4137   -2.3100    0.0000 C   0  0  0  0  0  0  0  0  0  0  0  0
    3.0800   -3.0800    0.0000 C   0  0  0  0  0  0  0  0  0  0  0  0
    4.4137   -0.7700    0.0000 C   0  0  0  0  0  0  0  0  0  0  0  0
  1 19  1  0  0  0  0
  2 19  1  0  0  0  0
  3 20  1  0  0  0  0
  4 20  1  0  0  0  0
  5 21  1  0  0  0  0
  6 21  1  0  0  0  0
  7 22  1  0  0  0  0
  8 22  1  0  0  0  0
  9 23  1  0  0  0  0
 10 23  1  0  0  0  0
 11 24  1  0  0  0  0
 12 24  1  0  0  0  0
 13 25  1  0  0  0  0
 14 25  1  0  0  0  0
 15 27  1  0  0  0  0
 16 27  1  0  0  0  0
 17 26  1  0  0  0  0
 17 28  1  0  0  0  0
 18 28  2  0  0  0  0
 19 20  1  0  0  0  0
 19 21  1  0  0  0  0
 20 22  1  0  0  0  0
 21 23  1  0  0  0  0
 22 24  1  0  0  0  0
 23 25  1  0  0  0  0
 24 26  1  0  0  0  0
 25 27  1  0  0  0  0
 28 29  1  0  0  0  0
 29 30  1  0  0  0  0
 29 31  2  0  0  0  0
M  END
>  <INPUT>
DTXSID10171538

>  <FOUND_BY>
DSSTox_Substance_Id

>  <DTXSID>
DTXSID10171538

>  <PREFERRED_NAME>
1H,1H,9H-perfluorononyl methacrylate

>  <CASRN>
1841-46-9

>  <INCHIKEY>
XAENZTGUQXVFPQ-UHFFFAOYSA-N

>  <IUPAC_NAME>
2,2,3,3,4,4,5,5,6,6,7,7,8,8,9,9-Hexadecafluorononyl 2-methylprop-2-enoate

>  <SMILES>
CC(=C)C(=O)OCC(F)(F)C(F)(F)C(F)(F)C(F)(F)C(F)(F)C(F)(F)C(F)(F)C(F)F

>  <INCHI_STRING>
InChI=1S/C13H8F16O2/c1-4(2)5(30)31-3-7(16,17)9(20,21)11(24,25)13(28,29)12(26,27)10(22,23)8(18,19)6(14)15/h6H,1,3H2,2H3


>  <MOLECULAR_FORMULA>
C13H8F16O2

>  <AVERAGE_MASS>
500.179

>  <MONOISOTOPIC_MASS>
500.026880106

>  <MOL_FILE>
MOL_FILE

$$$$

  -INDIGO-02112615072D

 29 28  0  0  0  0  0  0  0  0999 V2000
   16.4171    3.8500    0.0000 Cl  0  0  0  0  0  0  0  0  0  0  0  0
   15.0834    3.0800    0.0000 S   0  0  0  0  0  0  0  0  0  0  0  0
    8.9785    1.3337    0.0000 F   0  0  0  0  0  0  0  0  0  0  0  0
   10.5187   -1.3337    0.0000 F   0  0  0  0  0  0  0  0  0  0  0  0
   10.3124    2.1037    0.0000 F   0  0  0  0  0  0  0  0  0  0  0  0
   11.8524   -0.5637    0.0000 F   0  0  0  0  0  0  0  0  0  0  0  0
    7.6449    0.5637    0.0000 F   0  0  0  0  0  0  0  0  0  0  0  0
    9.1849   -2.1037    0.0000 F   0  0  0  0  0  0  0  0  0  0  0  0
   13.1861    0.2065    0.0000 F   0  0  0  0  0  0  0  0  0  0  0  0
   11.6461    2.8737    0.0000 F   0  0  0  0  0  0  0  0  0  0  0  0
    6.3112   -0.2065    0.0000 F   0  0  0  0  0  0  0  0  0  0  0  0
    7.8512   -2.8737    0.0000 F   0  0  0  0  0  0  0  0  0  0  0  0
   14.5197    0.9765    0.0000 F   0  0  0  0  0  0  0  0  0  0  0  0
   12.9797    3.6437    0.0000 F   0  0  0  0  0  0  0  0  0  0  0  0
    4.9775   -0.9765    0.0000 F   0  0  0  0  0  0  0  0  0  0  0  0
    6.5175   -3.6437    0.0000 F   0  0  0  0  0  0  0  0  0  0  0  0
    3.0800   -3.8500    0.0000 F   0  0  0  0  0  0  0  0  0  0  0  0
    3.6437   -1.7465    0.0000 F   0  0  0  0  0  0  0  0  0  0  0  0
    5.1837   -4.4137    0.0000 F   0  0  0  0  0  0  0  0  0  0  0  0
   15.8534    1.7465    0.0000 O   0  0  0  0  0  0  0  0  0  0  0  0
   14.3134    4.4137    0.0000 O   0  0  0  0  0  0  0  0  0  0  0  0
    9.7485    0.0000    0.0000 C   0  0  0  0  0  0  0  0  0  0  0  0
   11.0824    0.7700    0.0000 C   0  0  0  0  0  0  0  0  0  0  0  0
    8.4149   -0.7700    0.0000 C   0  0  0  0  0  0  0  0  0  0  0  0
   12.4161    1.5400    0.0000 C   0  0  0  0  0  0  0  0  0  0  0  0
    7.0812   -1.5400    0.0000 C   0  0  0  0  0  0  0  0  0  0  0  0
   13.7497    2.3100    0.0000 C   0  0  0  0  0  0  0  0  0  0  0  0
    5.7475   -2.3100    0.0000 C   0  0  0  0  0  0  0  0  0  0  0  0
    4.4137   -3.0800    0.0000 C   0  0  0  0  0  0  0  0  0  0  0  0
  1  2  1  0  0  0  0
  2 20  2  0  0  0  0
  2 21  2  0  0  0  0
  2 27  1  0  0  0  0
  3 22  1  0  0  0  0
  4 22  1  0  0  0  0
  5 23  1  0  0  0  0
  6 23  1  0  0  0  0
  7 24  1  0  0  0  0
  8 24  1  0  0  0  0
  9 25  1  0  0  0  0
 10 25  1  0  0  0  0
 11 26  1  0  0  0  0
 12 26  1  0  0  0  0
 13 27  1  0  0  0  0
 14 27  1  0  0  0  0
 15 28  1  0  0  0  0
 16 28  1  0  0  0  0
 17 29  1  0  0  0  0
 18 29  1  0  0  0  0
 19 29  1  0  0  0  0
 22 23  1  0  0  0  0
 22 24  1  0  0  0  0
 23 25  1  0  0  0  0
 24 26  1  0  0  0  0
 25 27  1  0  0  0  0
 26 28  1  0  0  0  0
 28 29  1  0  0  0  0
M  END
>  <INPUT>
DTXSID90315130

>  <FOUND_BY>
DSSTox_Substance_Id

>  <DTXSID>
DTXSID90315130

>  <PREFERRED_NAME>
Perfluoro-1-octanesulfonyl chloride

>  <CASRN>
423-60-9

>  <INCHIKEY>
FJHZKRYJOILIGD-UHFFFAOYSA-N

>  <IUPAC_NAME>
Heptadecafluorooctane-1-sulfonyl chloride

>  <SMILES>
FC(F)(F)C(F)(F)C(F)(F)C(F)(F)C(F)(F)C(F)(F)C(F)(F)C(F)(F)S(Cl)(=O)=O

>  <INCHI_STRING>
InChI=1S/C8ClF17O2S/c9-29(27,28)8(25,26)6(20,21)4(16,17)2(12,13)1(10,11)3(14,15)5(18,19)7(22,23)24

>  <MOLECULAR_FORMULA>
C8ClF17O2S

>  <AVERAGE_MASS>
518.57

>  <MONOISOTOPIC_MASS>
517.9036069

>  <MOL_FILE>
MOL_FILE

$$$$

  -INDIGO-02112615072D

 20 19  0  0  0  0  0  0  0  0999 V2000
    3.0800   -2.6951    0.0000 I   0  0  0  0  0  0  0  0  0  0  0  0
   12.4161    2.6951    0.0000 I   0  0  0  0  0  0  0  0  0  0  0  0
    6.3112    0.9486    0.0000 F   0  0  0  0  0  0  0  0  0  0  0  0
    9.1849   -0.9486    0.0000 F   0  0  0  0  0  0  0  0  0  0  0  0
    7.6449    1.7186    0.0000 F   0  0  0  0  0  0  0  0  0  0  0  0
    7.8512   -1.7186    0.0000 F   0  0  0  0  0  0  0  0  0  0  0  0
    4.9775    0.1786    0.0000 F   0  0  0  0  0  0  0  0  0  0  0  0
    6.5175   -2.4886    0.0000 F   0  0  0  0  0  0  0  0  0  0  0  0
   10.5187   -0.1786    0.0000 F   0  0  0  0  0  0  0  0  0  0  0  0
    8.9785    2.4886    0.0000 F   0  0  0  0  0  0  0  0  0  0  0  0
    3.6437   -0.5914    0.0000 F   0  0  0  0  0  0  0  0  0  0  0  0
    5.1837   -3.2586    0.0000 F   0  0  0  0  0  0  0  0  0  0  0  0
   11.8524    0.5914    0.0000 F   0  0  0  0  0  0  0  0  0  0  0  0
   10.3124    3.2586    0.0000 F   0  0  0  0  0  0  0  0  0  0  0  0
    7.0812   -0.3851    0.0000 C   0  0  0  0  0  0  0  0  0  0  0  0
    8.4149    0.3851    0.0000 C   0  0  0  0  0  0  0  0  0  0  0  0
    5.7475   -1.1551    0.0000 C   0  0  0  0  0  0  0  0  0  0  0  0
    9.7485    1.1551    0.0000 C   0  0  0  0  0  0  0  0  0  0  0  0
    4.4137   -1.9251    0.0000 C   0  0  0  0  0  0  0  0  0  0  0  0
   11.0824    1.9251    0.0000 C   0  0  0  0  0  0  0  0  0  0  0  0
  1 19  1  0  0  0  0
  2 20  1  0  0  0  0
  3 15  1  0  0  0  0
  4 16  1  0  0  0  0
  5 16  1  0  0  0  0
  6 15  1  0  0  0  0
  7 17  1  0  0  0  0
  8 17  1  0  0  0  0
  9 18  1  0  0  0  0
 10 18  1  0  0  0  0
 11 19  1  0  0  0  0
 12 19  1  0  0  0  0
 13 20  1  0  0  0  0
 14 20  1  0  0  0  0
 15 16  1  0  0  0  0
 15 17  1  0  0  0  0
 16 18  1  0  0  0  0
 17 19  1  0  0  0  0
 18 20  1  0  0  0  0
M  END
>  <INPUT>
DTXSID90190949

>  <FOUND_BY>
DSSTox_Substance_Id

>  <DTXSID>
DTXSID90190949

>  <PREFERRED_NAME>
1,6-Diiodoperfluorohexane

>  <CASRN>
375-80-4

>  <INCHIKEY>
JOQDDLBOAIKFQX-UHFFFAOYSA-N

>  <IUPAC_NAME>
1,1,2,2,3,3,4,4,5,5,6,6-Dodecafluoro-1,6-diiodohexane

>  <SMILES>
FC(F)(I)C(F)(F)C(F)(F)C(F)(F)C(F)(F)C(F)(F)I

>  <INCHI_STRING>
InChI=1S/C6F12I2/c7-1(8,3(11,12)5(15,16)19)2(9,10)4(13,14)6(17,18)20

>  <MOLECULAR_FORMULA>
C6F12I2

>  <AVERAGE_MASS>
553.856

>  <MONOISOTOPIC_MASS>
553.78978

>  <MOL_FILE>
MOL_FILE

$$$$

  -INDIGO-02112615072D

 26 25  0  0  0  0  0  0  0  0999 V2000
   18.6160    2.0724    0.0000 P   0  0  0  0  0  0  0  0  0  0  0  0
   10.9160   -2.1350    0.0000 F   0  0  0  0  0  0  0  0  0  0  0  0
   10.9160    0.9450    0.0000 F   0  0  0  0  0  0  0  0  0  0  0  0
   12.4560   -2.1350    0.0000 F   0  0  0  0  0  0  0  0  0  0  0  0
   12.4560    0.9450    0.0000 F   0  0  0  0  0  0  0  0  0  0  0  0
    9.3760   -2.1350    0.0000 F   0  0  0  0  0  0  0  0  0  0  0  0
    9.3760    0.9450    0.0000 F   0  0  0  0  0  0  0  0  0  0  0  0
   13.9960   -2.1350    0.0000 F   0  0  0  0  0  0  0  0  0  0  0  0
   13.9960    0.9450    0.0000 F   0  0  0  0  0  0  0  0  0  0  0  0
    7.8360   -2.1350    0.0000 F   0  0  0  0  0  0  0  0  0  0  0  0
    7.8360    0.9450    0.0000 F   0  0  0  0  0  0  0  0  0  0  0  0
    4.7560   -0.5950    0.0000 F   0  0  0  0  0  0  0  0  0  0  0  0
    6.2960   -2.1350    0.0000 F   0  0  0  0  0  0  0  0  0  0  0  0
    6.2960    0.9450    0.0000 F   0  0  0  0  0  0  0  0  0  0  0  0
   17.8460    0.7387    0.0000 O   0  0  0  0  0  0  0  0  0  0  0  0
   19.3860    3.4060    0.0000 O   0  0  0  0  0  0  0  0  0  0  0  0
   19.9497    1.3024    0.0000 O   0  0  0  0  0  0  0  0  0  0  0  0
   17.2823    2.8424    0.0000 O   0  0  0  0  0  0  0  0  0  0  0  0
   10.9160   -0.5950    0.0000 C   0  0  0  0  0  0  0  0  0  0  0  0
   12.4560   -0.5950    0.0000 C   0  0  0  0  0  0  0  0  0  0  0  0
    9.3760   -0.5950    0.0000 C   0  0  0  0  0  0  0  0  0  0  0  0
   13.9960   -0.5950    0.0000 C   0  0  0  0  0  0  0  0  0  0  0  0
   15.5360   -0.5950    0.0000 C   0  0  0  0  0  0  0  0  0  0  0  0
    7.8360   -0.5950    0.0000 C   0  0  0  0  0  0  0  0  0  0  0  0
   16.3060    0.7387    0.0000 C   0  0  0  0  0  0  0  0  0  0  0  0
    6.2960   -0.5950    0.0000 C   0  0  0  0  0  0  0  0  0  0  0  0
  1 15  1  0  0  0  0
  1 16  1  0  0  0  0
  1 17  1  0  0  0  0
  1 18  2  0  0  0  0
  2 19  1  0  0  0  0
  3 19  1  0  0  0  0
  4 20  1  0  0  0  0
  5 20  1  0  0  0  0
  6 21  1  0  0  0  0
  7 21  1  0  0  0  0
  8 22  1  0  0  0  0
  9 22  1  0  0  0  0
 10 24  1  0  0  0  0
 11 24  1  0  0  0  0
 12 26  1  0  0  0  0
 13 26  1  0  0  0  0
 14 26  1  0  0  0  0
 15 25  1  0  0  0  0
 19 20  1  0  0  0  0
 19 21  1  0  0  0  0
 20 22  1  0  0  0  0
 21 24  1  0  0  0  0
 22 23  1  0  0  0  0
 23 25  1  0  0  0  0
 24 26  1  0  0  0  0
M  END
>  <INPUT>
DTXSID90558000

>  <FOUND_BY>
DSSTox_Substance_Id

>  <DTXSID>
DTXSID90558000

>  <PREFERRED_NAME>
6:2 Fluorotelomer phosphate monoester

>  <CASRN>
57678-01-0

>  <INCHIKEY>
FZTRDYSPWWJCOF-UHFFFAOYSA-N

>  <IUPAC_NAME>
3,3,4,4,5,5,6,6,7,7,8,8,8-Tridecafluorooctyl dihydrogen phosphate

>  <SMILES>
OP(O)(=O)OCCC(F)(F)C(F)(F)C(F)(F)C(F)(F)C(F)(F)C(F)(F)F

>  <INCHI_STRING>
InChI=1S/C8H6F13O4P/c9-3(10,1-2-25-26(22,23)24)4(11,12)5(13,14)6(15,16)7(17,18)8(19,20)21/h1-2H2,(H2,22,23,24)


>  <MOLECULAR_FORMULA>
C8H6F13O4P

>  <AVERAGE_MASS>
444.085

>  <MONOISOTOPIC_MASS>
443.97961179

>  <MOL_FILE>
MOL_FILE

$$$$

  -INDIGO-02112615072D

 23 23  0  0  0  0  0  0  0  0999 V2000
    2.6676   -0.5914    0.0000 F   0  0  0  0  0  0  0  0  0  0  0  0
    1.1276   -3.2586    0.0000 F   0  0  0  0  0  0  0  0  0  0  0  0
    1.3338    0.1786    0.0000 F   0  0  0  0  0  0  0  0  0  0  0  0
   -0.2064   -2.4886    0.0000 F   0  0  0  0  0  0  0  0  0  0  0  0
    0.0001    0.9486    0.0000 F   0  0  0  0  0  0  0  0  0  0  0  0
   -1.5399   -1.7186    0.0000 F   0  0  0  0  0  0  0  0  0  0  0  0
   -1.3336    1.7186    0.0000 F   0  0  0  0  0  0  0  0  0  0  0  0
   -2.8736   -0.9486    0.0000 F   0  0  0  0  0  0  0  0  0  0  0  0
   -2.6672    2.4886    0.0000 F   0  0  0  0  0  0  0  0  0  0  0  0
   -4.2074   -0.1786    0.0000 F   0  0  0  0  0  0  0  0  0  0  0  0
   -4.0011    3.2586    0.0000 F   0  0  0  0  0  0  0  0  0  0  0  0
   -6.1048    2.6951    0.0000 F   0  0  0  0  0  0  0  0  0  0  0  0
   -5.5411    0.5914    0.0000 F   0  0  0  0  0  0  0  0  0  0  0  0
    5.3348   -0.5914    0.0000 O   0  0  0  0  0  0  0  0  0  0  0  0
    4.5648   -1.9251    0.0000 C   0  0  0  0  0  0  0  0  0  0  0  0
    3.2313   -2.6951    0.0000 C   0  0  0  0  0  0  0  0  0  0  0  0
    1.8976   -1.9251    0.0000 C   0  0  0  0  0  0  0  0  0  0  0  0
    0.5636   -1.1551    0.0000 C   0  0  0  0  0  0  0  0  0  0  0  0
   -0.7699   -0.3851    0.0000 C   0  0  0  0  0  0  0  0  0  0  0  0
    6.1048   -1.9251    0.0000 C   0  0  0  0  0  0  0  0  0  0  0  0
   -2.1036    0.3851    0.0000 C   0  0  0  0  0  0  0  0  0  0  0  0
   -3.4372    1.1551    0.0000 C   0  0  0  0  0  0  0  0  0  0  0  0
   -4.7711    1.9251    0.0000 C   0  0  0  0  0  0  0  0  0  0  0  0
  1 17  1  0  0  0  0
  2 17  1  0  0  0  0
  3 18  1  0  0  0  0
  4 18  1  0  0  0  0
  5 19  1  0  0  0  0
  6 19  1  0  0  0  0
  7 21  1  0  0  0  0
  8 21  1  0  0  0  0
  9 22  1  0  0  0  0
 10 22  1  0  0  0  0
 11 23  1  0  0  0  0
 12 23  1  0  0  0  0
 13 23  1  0  0  0  0
 14 15  1  0  0  0  0
 14 20  1  0  0  0  0
 15 16  1  0  0  0  0
 15 20  1  0  0  0  0
 16 17  1  0  0  0  0
 17 18  1  0  0  0  0
 18 19  1  0  0  0  0
 19 21  1  0  0  0  0
 21 22  1  0  0  0  0
 22 23  1  0  0  0  0
M  END
>  <INPUT>
DTXSID30880413

>  <FOUND_BY>
DSSTox_Substance_Id

>  <DTXSID>
DTXSID30880413

>  <PREFERRED_NAME>
3-(Perfluorohexyl)-1,2-epoxypropane

>  <CASRN>
38565-52-5

>  <INCHIKEY>
KGYUZRBIQCDOCN-UHFFFAOYNA-N

>  <IUPAC_NAME>
2-(2,2,3,3,4,4,5,5,6,6,7,7,7-Tridecafluoroheptyl)oxirane

>  <SMILES>
FC(F)(F)C(F)(F)C(F)(F)C(F)(F)C(F)(F)C(F)(F)CC1CO1

>  <INCHI_STRING>
InChI=1S/C9H5F13O/c10-4(11,1-3-2-23-3)5(12,13)6(14,15)7(16,17)8(18,19)9(20,21)22/h3H,1-2H2

>  <MOLECULAR_FORMULA>
C9H5F13O

>  <AVERAGE_MASS>
376.117

>  <MONOISOTOPIC_MASS>
376.0132809

>  <MOL_FILE>
MOL_FILE

$$$$

  -INDIGO-02112615072D

 30 30  0  0  0  0  0  0  0  0999 V2000
    4.3519   -3.9769    0.0000 S   0  0  0  0  0  0  0  0  0  0  0  0
    1.4782    2.9531    0.0000 F   0  0  0  0  0  0  0  0  0  0  0  0
    4.5582    2.9531    0.0000 F   0  0  0  0  0  0  0  0  0  0  0  0
    1.4782    1.4131    0.0000 F   0  0  0  0  0  0  0  0  0  0  0  0
    4.5582    1.4131    0.0000 F   0  0  0  0  0  0  0  0  0  0  0  0
    1.4782    4.4931    0.0000 F   0  0  0  0  0  0  0  0  0  0  0  0
    4.5582    4.4931    0.0000 F   0  0  0  0  0  0  0  0  0  0  0  0
    1.4782   -0.1269    0.0000 F   0  0  0  0  0  0  0  0  0  0  0  0
    4.5582   -0.1269    0.0000 F   0  0  0  0  0  0  0  0  0  0  0  0
    1.4782    6.0331    0.0000 F   0  0  0  0  0  0  0  0  0  0  0  0
    4.5582    6.0331    0.0000 F   0  0  0  0  0  0  0  0  0  0  0  0
    1.6846    8.3431    0.0000 F   0  0  0  0  0  0  0  0  0  0  0  0
    4.3519    8.3431    0.0000 F   0  0  0  0  0  0  0  0  0  0  0  0
    4.3519   -2.4369    0.0000 O   0  0  0  0  0  0  0  0  0  0  0  0
    2.8119   -3.9769    0.0000 O   0  0  0  0  0  0  0  0  0  0  0  0
    5.8919   -3.9769    0.0000 O   0  0  0  0  0  0  0  0  0  0  0  0
    3.0182    2.9531    0.0000 C   0  0  0  0  0  0  0  0  0  0  0  0
    3.0182    1.4131    0.0000 C   0  0  0  0  0  0  0  0  0  0  0  0
    3.0182    4.4931    0.0000 C   0  0  0  0  0  0  0  0  0  0  0  0
    3.0182   -0.1269    0.0000 C   0  0  0  0  0  0  0  0  0  0  0  0
    3.0182    6.0331    0.0000 C   0  0  0  0  0  0  0  0  0  0  0  0
    3.0182   -1.6669    0.0000 C   0  0  0  0  0  0  0  0  0  0  0  0
    3.0182    7.5731    0.0000 C   0  0  0  0  0  0  0  0  0  0  0  0
    4.3519   -5.5169    0.0000 C   0  0  0  0  0  0  0  0  0  0  0  0
    5.6856   -6.2869    0.0000 C   0  0  0  0  0  0  0  0  0  0  0  0
    3.0182   -6.2869    0.0000 C   0  0  0  0  0  0  0  0  0  0  0  0
    4.3519   -8.5969    0.0000 C   0  0  0  0  0  0  0  0  0  0  0  0
    5.6856   -7.8269    0.0000 C   0  0  0  0  0  0  0  0  0  0  0  0
    3.0182   -7.8269    0.0000 C   0  0  0  0  0  0  0  0  0  0  0  0
    4.3519  -10.1369    0.0000 C   0  0  0  0  0  0  0  0  0  0  0  0
  1 14  1  0  0  0  0
  1 15  2  0  0  0  0
  1 16  2  0  0  0  0
  1 24  1  0  0  0  0
  2 17  1  0  0  0  0
  3 17  1  0  0  0  0
  4 18  1  0  0  0  0
  5 18  1  0  0  0  0
  6 19  1  0  0  0  0
  7 19  1  0  0  0  0
  8 20  1  0  0  0  0
  9 20  1  0  0  0  0
 10 21  1  0  0  0  0
 11 21  1  0  0  0  0
 12 23  1  0  0  0  0
 13 23  1  0  0  0  0
 14 22  1  0  0  0  0
 17 18  1  0  0  0  0
 17 19  1  0  0  0  0
 18 20  1  0  0  0  0
 19 21  1  0  0  0  0
 20 22  1  0  0  0  0
 21 23  1  0  0  0  0
 24 25  2  0  0  0  0
 24 26  1  0  0  0  0
 25 28  1  0  0  0  0
 26 29  2  0  0  0  0
 27 28  2  0  0  0  0
 27 29  1  0  0  0  0
 27 30  1  0  0  0  0
M  END
>  <INPUT>
DTXSID30340244

>  <FOUND_BY>
DSSTox_Substance_Id

>  <DTXSID>
DTXSID30340244

>  <PREFERRED_NAME>
1H,1H,7H-Perfluoroheptyl 4-methylbenzenesulfonate

>  <CASRN>
424-16-8

>  <INCHIKEY>
OXJVZWUUXGCJLH-UHFFFAOYSA-N

>  <IUPAC_NAME>
2,2,3,3,4,4,5,5,6,6,7,7-Dodecafluoroheptyl 4-methylbenzene-1-sulfonate

>  <SMILES>
CC1=CC=C(C=C1)S(=O)(=O)OCC(F)(F)C(F)(F)C(F)(F)C(F)(F)C(F)(F)C(F)F

>  <INCHI_STRING>
InChI=1S/C14H10F12O3S/c1-7-2-4-8(5-3-7)30(27,28)29-6-10(17,18)12(21,22)14(25,26)13(23,24)11(19,20)9(15)16/h2-5,9H,6H2,1H3


>  <MOLECULAR_FORMULA>
C14H10F12O3S

>  <AVERAGE_MASS>
486.27

>  <MONOISOTOPIC_MASS>
486.015903312

>  <MOL_FILE>
MOL_FILE

$$$$

  -INDIGO-02112615072D

 30 29  0  0  0  0  0  0  0  0999 V2000
   11.6461    1.4368    0.0000 F   0  0  0  0  0  0  0  0  0  0  0  0
   13.1861   -1.2305    0.0000 F   0  0  0  0  0  0  0  0  0  0  0  0
   12.9797    2.2070    0.0000 F   0  0  0  0  0  0  0  0  0  0  0  0
   14.5197   -0.4605    0.0000 F   0  0  0  0  0  0  0  0  0  0  0  0
   10.3124    0.6668    0.0000 F   0  0  0  0  0  0  0  0  0  0  0  0
   11.8524   -2.0005    0.0000 F   0  0  0  0  0  0  0  0  0  0  0  0
   15.8534    0.3095    0.0000 F   0  0  0  0  0  0  0  0  0  0  0  0
   14.3134    2.9770    0.0000 F   0  0  0  0  0  0  0  0  0  0  0  0
    8.9785   -0.1032    0.0000 F   0  0  0  0  0  0  0  0  0  0  0  0
   10.5187   -2.7705    0.0000 F   0  0  0  0  0  0  0  0  0  0  0  0
   17.1873    1.0795    0.0000 F   0  0  0  0  0  0  0  0  0  0  0  0
   15.6471    3.7470    0.0000 F   0  0  0  0  0  0  0  0  0  0  0  0
    7.6449   -0.8732    0.0000 F   0  0  0  0  0  0  0  0  0  0  0  0
    9.1849   -3.5405    0.0000 F   0  0  0  0  0  0  0  0  0  0  0  0
   19.0846    3.9532    0.0000 F   0  0  0  0  0  0  0  0  0  0  0  0
   18.5209    1.8495    0.0000 F   0  0  0  0  0  0  0  0  0  0  0  0
   16.9809    4.5170    0.0000 F   0  0  0  0  0  0  0  0  0  0  0  0
    5.7475   -2.2070    0.0000 O   0  0  0  0  0  0  0  0  0  0  0  0
    7.0812   -4.5170    0.0000 O   0  0  0  0  0  0  0  0  0  0  0  0
   12.4161    0.1032    0.0000 C   0  0  0  0  0  0  0  0  0  0  0  0
   13.7497    0.8732    0.0000 C   0  0  0  0  0  0  0  0  0  0  0  0
   11.0824   -0.6668    0.0000 C   0  0  0  0  0  0  0  0  0  0  0  0
   15.0834    1.6432    0.0000 C   0  0  0  0  0  0  0  0  0  0  0  0
    9.7485   -1.4368    0.0000 C   0  0  0  0  0  0  0  0  0  0  0  0
   16.4171    2.4132    0.0000 C   0  0  0  0  0  0  0  0  0  0  0  0
    8.4149   -2.2070    0.0000 C   0  0  0  0  0  0  0  0  0  0  0  0
   17.7509    3.1832    0.0000 C   0  0  0  0  0  0  0  0  0  0  0  0
    7.0812   -2.9770    0.0000 C   0  0  0  0  0  0  0  0  0  0  0  0
    4.4137   -2.9770    0.0000 C   0  0  0  0  0  0  0  0  0  0  0  0
    3.0800   -2.2070    0.0000 C   0  0  0  0  0  0  0  0  0  0  0  0
  1 20  1  0  0  0  0
  2 20  1  0  0  0  0
  3 21  1  0  0  0  0
  4 21  1  0  0  0  0
  5 22  1  0  0  0  0
  6 22  1  0  0  0  0
  7 23  1  0  0  0  0
  8 23  1  0  0  0  0
  9 24  1  0  0  0  0
 10 24  1  0  0  0  0
 11 25  1  0  0  0  0
 12 25  1  0  0  0  0
 13 26  1  0  0  0  0
 14 26  1  0  0  0  0
 15 27  1  0  0  0  0
 16 27  1  0  0  0  0
 17 27  1  0  0  0  0
 18 28  1  0  0  0  0
 18 29  1  0  0  0  0
 19 28  2  0  0  0  0
 20 21  1  0  0  0  0
 20 22  1  0  0  0  0
 21 23  1  0  0  0  0
 22 24  1  0  0  0  0
 23 25  1  0  0  0  0
 24 26  1  0  0  0  0
 25 27  1  0  0  0  0
 26 28  1  0  0  0  0
 29 30  1  0  0  0  0
M  END
>  <INPUT>
DTXSID60184456

>  <FOUND_BY>
DSSTox_Substance_Id

>  <DTXSID>
DTXSID60184456

>  <PREFERRED_NAME>
Ethyl perfluorononanoate

>  <CASRN>
30377-52-7

>  <INCHIKEY>
DRLDSHOYANTUND-UHFFFAOYSA-N

>  <IUPAC_NAME>
Ethyl heptadecafluorononanoate

>  <SMILES>
CCOC(=O)C(F)(F)C(F)(F)C(F)(F)C(F)(F)C(F)(F)C(F)(F)C(F)(F)C(F)(F)F

>  <INCHI_STRING>
InChI=1S/C11H5F17O2/c1-2-30-3(29)4(12,13)5(14,15)6(16,17)7(18,19)8(20,21)9(22,23)10(24,25)11(26,27)28/h2H2,1H3

>  <MOLECULAR_FORMULA>
C11H5F17O2

>  <AVERAGE_MASS>
492.132

>  <MONOISOTOPIC_MASS>
492.001808172

>  <MOL_FILE>
MOL_FILE

$$$$

  -INDIGO-02112615072D

 12 12  0  0  0  0  0  0  0  0999 V2000
    4.1412   -2.6753    0.0000 F   0  0  0  0  0  0  0  0  0  0  0  0
    3.3710   -1.3417    0.0000 C   0  0  0  0  0  0  0  0  0  0  0  0
    4.1412   -0.0001    0.0000 F   0  0  0  0  0  0  0  0  0  0  0  0
    1.8222   -1.3417    0.0000 C   0  0  0  0  0  0  0  0  0  0  0  0
    1.8222   -2.8823    0.0000 F   0  0  0  0  0  0  0  0  0  0  0  0
    1.8222    0.2071    0.0000 F   0  0  0  0  0  0  0  0  0  0  0  0
    0.2816   -1.3417    0.0000 C   0  0  0  0  0  0  0  0  0  0  0  0
   -0.4886   -0.0001    0.0000 O   0  0  0  0  0  0  0  0  0  0  0  0
   -2.0292   -0.0001    0.0000 C   0  0  0  0  0  0  0  0  0  0  0  0
   -2.8078    1.3335    0.0000 C   0  0  0  0  0  0  0  0  0  0  0  0
   -2.8078    2.8823    0.0000 C   0  0  0  0  0  0  0  0  0  0  0  0
   -4.1412    2.1037    0.0000 O   0  0  0  0  0  0  0  0  0  0  0  0
  1  2  1  0  0  0  0
  2  3  1  0  0  0  0
  2  4  1  0  0  0  0
  4  5  1  0  0  0  0
  4  6  1  0  0  0  0
  4  7  1  0  0  0  0
  7  8  1  0  0  0  0
  8  9  1  0  0  0  0
  9 10  1  0  0  0  0
 10 11  1  0  0  0  0
 10 12  1  0  0  0  0
 11 12  1  0  0  0  0
M  END
>  <INPUT>
DTXSID70880230

>  <FOUND_BY>
DSSTox_Substance_Id

>  <DTXSID>
DTXSID70880230

>  <PREFERRED_NAME>
((2,2,3,3-Tetrafluoropropoxy)methyl)oxirane

>  <CASRN>
19932-26-4

>  <INCHIKEY>
DATKALAKXGFGPI-UHFFFAOYNA-N

>  <IUPAC_NAME>
2-[(2,2,3,3-Tetrafluoropropoxy)methyl]oxirane

>  <SMILES>
FC(F)C(F)(F)COCC1CO1

>  <INCHI_STRING>
InChI=1S/C6H8F4O2/c7-5(8)6(9,10)3-11-1-4-2-12-4/h4-5H,1-3H2

>  <MOLECULAR_FORMULA>
C6H8F4O2

>  <AVERAGE_MASS>
188.122

>  <MONOISOTOPIC_MASS>
188.04604215

>  <MOL_FILE>
MOL_FILE

$$$$

  -INDIGO-02112615072D

 27 26  0  0  0  0  0  0  0  0999 V2000
    2.8737  -11.5500    0.0000 O   0  0  0  0  0  0  0  0  0  0  0  0
    1.5400  -10.7800    0.0000 C   0  0  0  0  0  0  0  0  0  0  0  0
    0.2063  -11.5500    0.0000 O   0  0  0  0  0  0  0  0  0  0  0  0
    0.2063  -13.0900    0.0000 C   0  0  0  0  0  0  0  0  0  0  0  0
   -1.1273  -13.8600    0.0000 C   0  0  0  0  0  0  0  0  0  0  0  0
    1.5400   -9.2400    0.0000 C   0  0  0  0  0  0  0  0  0  0  0  0
    3.0800   -9.2400    0.0000 F   0  0  0  0  0  0  0  0  0  0  0  0
    0.0000   -9.2400    0.0000 F   0  0  0  0  0  0  0  0  0  0  0  0
    1.5400   -7.7000    0.0000 C   0  0  0  0  0  0  0  0  0  0  0  0
    3.0800   -7.7000    0.0000 F   0  0  0  0  0  0  0  0  0  0  0  0
    0.0000   -7.7000    0.0000 F   0  0  0  0  0  0  0  0  0  0  0  0
    1.5400   -6.1600    0.0000 C   0  0  0  0  0  0  0  0  0  0  0  0
    3.0800   -6.1600    0.0000 F   0  0  0  0  0  0  0  0  0  0  0  0
    0.0000   -6.1600    0.0000 F   0  0  0  0  0  0  0  0  0  0  0  0
    1.5400   -4.6200    0.0000 C   0  0  0  0  0  0  0  0  0  0  0  0
    3.0800   -4.6200    0.0000 F   0  0  0  0  0  0  0  0  0  0  0  0
    0.0000   -4.6200    0.0000 F   0  0  0  0  0  0  0  0  0  0  0  0
    1.5400   -3.0800    0.0000 C   0  0  0  0  0  0  0  0  0  0  0  0
    3.0800   -3.0800    0.0000 F   0  0  0  0  0  0  0  0  0  0  0  0
    0.0000   -3.0800    0.0000 F   0  0  0  0  0  0  0  0  0  0  0  0
    1.5400   -1.5400    0.0000 C   0  0  0  0  0  0  0  0  0  0  0  0
    3.0800   -1.5400    0.0000 F   0  0  0  0  0  0  0  0  0  0  0  0
    0.0000   -1.5400    0.0000 F   0  0  0  0  0  0  0  0  0  0  0  0
    1.5400    0.0000    0.0000 C   0  0  0  0  0  0  0  0  0  0  0  0
    1.5400    1.5400    0.0000 F   0  0  0  0  0  0  0  0  0  0  0  0
    3.0800    0.0000    0.0000 F   0  0  0  0  0  0  0  0  0  0  0  0
    0.0000    0.0000    0.0000 F   0  0  0  0  0  0  0  0  0  0  0  0
  1  2  2  0  0  0  0
  2  3  1  0  0  0  0
  3  4  1  0  0  0  0
  4  5  1  0  0  0  0
  2  6  1  0  0  0  0
  6  7  1  0  0  0  0
  6  8  1  0  0  0  0
  6  9  1  0  0  0  0
  9 10  1  0  0  0  0
  9 11  1  0  0  0  0
  9 12  1  0  0  0  0
 12 13  1  0  0  0  0
 12 14  1  0  0  0  0
 12 15  1  0  0  0  0
 15 16  1  0  0  0  0
 15 17  1  0  0  0  0
 15 18  1  0  0  0  0
 18 19  1  0  0  0  0
 18 20  1  0  0  0  0
 18 21  1  0  0  0  0
 21 22  1  0  0  0  0
 21 23  1  0  0  0  0
 21 24  1  0  0  0  0
 24 25  1  0  0  0  0
 24 26  1  0  0  0  0
 24 27  1  0  0  0  0
M  END
>  <INPUT>
DTXSID5062849

>  <FOUND_BY>
DSSTox_Substance_Id

>  <DTXSID>
DTXSID5062849

>  <PREFERRED_NAME>
Ethyl perfluorooctanoate

>  <CASRN>
3108-24-5

>  <INCHIKEY>
JTOFFHFAQBLPTM-UHFFFAOYSA-N

>  <IUPAC_NAME>
Ethyl pentadecafluorooctanoate

>  <SMILES>
CCOC(=O)C(F)(F)C(F)(F)C(F)(F)C(F)(F)C(F)(F)C(F)(F)C(F)(F)F

>  <INCHI_STRING>
InChI=1S/C10H5F15O2/c1-2-27-3(26)4(11,12)5(13,14)6(15,16)7(17,18)8(19,20)9(21,22)10(23,24)25/h2H2,1H3

>  <MOLECULAR_FORMULA>
C10H5F15O2

>  <AVERAGE_MASS>
442.124

>  <MONOISOTOPIC_MASS>
442.005001846

>  <MOL_FILE>
MOL_FILE

$$$$

  -INDIGO-02112615072D

 20 19  0  0  0  0  0  0  0  0999 V2000
    4.6595   -7.3288    0.0000 I   0  0  0  0  0  0  0  0  0  0  0  0
    4.6595   -5.7888    0.0000 C   0  0  0  0  0  0  0  0  0  0  0  0
    4.6595   -4.2488    0.0000 C   0  0  0  0  0  0  0  0  0  0  0  0
    4.6595   -2.7088    0.0000 C   0  0  0  0  0  0  0  0  0  0  0  0
    4.6595   -1.1688    0.0000 C   0  0  0  0  0  0  0  0  0  0  0  0
    4.6595    0.3712    0.0000 C   0  0  0  0  0  0  0  0  0  0  0  0
    4.6595    1.9112    0.0000 C   0  0  0  0  0  0  0  0  0  0  0  0
    4.6595    3.4512    0.0000 F   0  0  0  0  0  0  0  0  0  0  0  0
    6.1995    1.9112    0.0000 F   0  0  0  0  0  0  0  0  0  0  0  0
    3.1195    1.9112    0.0000 F   0  0  0  0  0  0  0  0  0  0  0  0
    6.1995    0.3712    0.0000 F   0  0  0  0  0  0  0  0  0  0  0  0
    3.1195    0.3712    0.0000 F   0  0  0  0  0  0  0  0  0  0  0  0
    6.1995   -1.1688    0.0000 F   0  0  0  0  0  0  0  0  0  0  0  0
    3.1195   -1.1688    0.0000 F   0  0  0  0  0  0  0  0  0  0  0  0
    6.1995   -2.7088    0.0000 F   0  0  0  0  0  0  0  0  0  0  0  0
    3.1195   -2.7088    0.0000 F   0  0  0  0  0  0  0  0  0  0  0  0
    6.1995   -4.2488    0.0000 F   0  0  0  0  0  0  0  0  0  0  0  0
    3.1195   -4.2488    0.0000 F   0  0  0  0  0  0  0  0  0  0  0  0
    6.1995   -5.7888    0.0000 F   0  0  0  0  0  0  0  0  0  0  0  0
    3.1195   -5.7888    0.0000 F   0  0  0  0  0  0  0  0  0  0  0  0
  1  2  1  0  0  0  0
  2  3  1  0  0  0  0
  2 19  1  0  0  0  0
  2 20  1  0  0  0  0
  3  4  1  0  0  0  0
  3 17  1  0  0  0  0
  3 18  1  0  0  0  0
  4  5  1  0  0  0  0
  4 15  1  0  0  0  0
  4 16  1  0  0  0  0
  5  6  1  0  0  0  0
  5 13  1  0  0  0  0
  5 14  1  0  0  0  0
  6  7  1  0  0  0  0
  6 11  1  0  0  0  0
  6 12  1  0  0  0  0
  7  8  1  0  0  0  0
  7  9  1  0  0  0  0
  7 10  1  0  0  0  0
M  END
>  <INPUT>
DTXSID7047566

>  <FOUND_BY>
DSSTox_Substance_Id

>  <DTXSID>
DTXSID7047566

>  <PREFERRED_NAME>
Perfluoro-1-iodohexane

>  <CASRN>
355-43-1

>  <INCHIKEY>
BULLJMKUVKYZDJ-UHFFFAOYSA-N

>  <IUPAC_NAME>
1,1,1,2,2,3,3,4,4,5,5,6,6-Tridecafluoro-6-iodohexane

>  <SMILES>
FC(F)(F)C(F)(F)C(F)(F)C(F)(F)C(F)(F)C(F)(F)I

>  <INCHI_STRING>
InChI=1S/C6F13I/c7-1(8,3(11,12)5(15,16)17)2(9,10)4(13,14)6(18,19)20


>  <MOLECULAR_FORMULA>
C6F13I

>  <AVERAGE_MASS>
445.95

>  <MONOISOTOPIC_MASS>
445.88371

>  <MOL_FILE>
MOL_FILE

$$$$

  -INDIGO-02112615072D

 27 26  0  0  0  0  0  0  0  0999 V2000
   15.0834    0.7700    0.0000 I   0  0  0  0  0  0  0  0  0  0  0  0
    8.9785    2.1037    0.0000 F   0  0  0  0  0  0  0  0  0  0  0  0
   10.5187   -0.5637    0.0000 F   0  0  0  0  0  0  0  0  0  0  0  0
   11.8524    0.2065    0.0000 F   0  0  0  0  0  0  0  0  0  0  0  0
   10.3124    2.8737    0.0000 F   0  0  0  0  0  0  0  0  0  0  0  0
    7.6449    1.3337    0.0000 F   0  0  0  0  0  0  0  0  0  0  0  0
    9.1849   -1.3337    0.0000 F   0  0  0  0  0  0  0  0  0  0  0  0
   13.1861    0.9765    0.0000 F   0  0  0  0  0  0  0  0  0  0  0  0
   11.6461    3.6437    0.0000 F   0  0  0  0  0  0  0  0  0  0  0  0
    6.3112    0.5637    0.0000 F   0  0  0  0  0  0  0  0  0  0  0  0
    7.8512   -2.1037    0.0000 F   0  0  0  0  0  0  0  0  0  0  0  0
    4.9775   -0.2065    0.0000 F   0  0  0  0  0  0  0  0  0  0  0  0
    6.5175   -2.8737    0.0000 F   0  0  0  0  0  0  0  0  0  0  0  0
    3.0800   -3.0800    0.0000 F   0  0  0  0  0  0  0  0  0  0  0  0
    3.6437   -0.9765    0.0000 F   0  0  0  0  0  0  0  0  0  0  0  0
    5.1837   -3.6437    0.0000 F   0  0  0  0  0  0  0  0  0  0  0  0
   17.7509    2.3100    0.0000 O   0  0  0  0  0  0  0  0  0  0  0  0
    9.7485    0.7700    0.0000 C   0  0  0  0  0  0  0  0  0  0  0  0
   11.0824    1.5400    0.0000 C   0  0  0  0  0  0  0  0  0  0  0  0
    8.4149    0.0000    0.0000 C   0  0  0  0  0  0  0  0  0  0  0  0
   12.4161    2.3100    0.0000 C   0  0  0  0  0  0  0  0  0  0  0  0
    7.0812   -0.7700    0.0000 C   0  0  0  0  0  0  0  0  0  0  0  0
   13.7497    3.0800    0.0000 C   0  0  0  0  0  0  0  0  0  0  0  0
    5.7475   -1.5400    0.0000 C   0  0  0  0  0  0  0  0  0  0  0  0
   15.0834    2.3100    0.0000 C   0  0  0  0  0  0  0  0  0  0  0  0
    4.4137   -2.3100    0.0000 C   0  0  0  0  0  0  0  0  0  0  0  0
   16.4171    3.0800    0.0000 C   0  0  0  0  0  0  0  0  0  0  0  0
  1 25  1  0  0  0  0
  2 18  1  0  0  0  0
  3 18  1  0  0  0  0
  4 19  1  0  0  0  0
  5 19  1  0  0  0  0
  6 20  1  0  0  0  0
  7 20  1  0  0  0  0
  8 21  1  0  0  0  0
  9 21  1  0  0  0  0
 10 22  1  0  0  0  0
 11 22  1  0  0  0  0
 12 24  1  0  0  0  0
 13 24  1  0  0  0  0
 14 26  1  0  0  0  0
 15 26  1  0  0  0  0
 16 26  1  0  0  0  0
 17 27  1  0  0  0  0
 18 19  1  0  0  0  0
 18 20  1  0  0  0  0
 19 21  1  0  0  0  0
 20 22  1  0  0  0  0
 21 23  1  0  0  0  0
 22 24  1  0  0  0  0
 23 25  1  0  0  0  0
 24 26  1  0  0  0  0
 25 27  1  0  0  0  0
M  END
>  <INPUT>
DTXSID20382618

>  <FOUND_BY>
DSSTox_Substance_Id

>  <DTXSID>
DTXSID20382618

>  <PREFERRED_NAME>
2-Iodo-1h,1h,2h,3h,3h-perfluorodecan-1-ol

>  <CASRN>
16083-64-0

>  <INCHIKEY>
DQVFKOBJDNVRJK-UHFFFAOYSA-N

>  <IUPAC_NAME>
4,4,5,5,6,6,7,7,8,8,9,9,10,10,10-Pentadecafluoro-2-iododecan-1-ol

>  <SMILES>
OCC(I)CC(F)(F)C(F)(F)C(F)(F)C(F)(F)C(F)(F)C(F)(F)C(F)(F)F

>  <INCHI_STRING>
InChI=1S/C10H6F15IO/c11-4(12,1-3(26)2-27)5(13,14)6(15,16)7(17,18)8(19,20)9(21,22)10(23,24)25/h3,27H,1-2H2

>  <MOLECULAR_FORMULA>
C10H6F15IO

>  <AVERAGE_MASS>
554.038

>  <MONOISOTOPIC_MASS>
553.92238

>  <MOL_FILE>
MOL_FILE

$$$$

  -INDIGO-02112615072D

 25 24  0  0  0  0  0  0  0  0999 V2000
    3.0800   -3.0800    0.0000 Cl  0  0  0  0  0  0  0  0  0  0  0  0
    3.6437   -0.9765    0.0000 Cl  0  0  0  0  0  0  0  0  0  0  0  0
    5.1837   -3.6437    0.0000 Cl  0  0  0  0  0  0  0  0  0  0  0  0
    4.4137   -2.3100    0.0000 Si  0  0  0  0  0  0  0  0  0  0  0  0
    8.9785    0.5637    0.0000 F   0  0  0  0  0  0  0  0  0  0  0  0
   10.5187   -2.1037    0.0000 F   0  0  0  0  0  0  0  0  0  0  0  0
   10.3124    1.3337    0.0000 F   0  0  0  0  0  0  0  0  0  0  0  0
   11.8524   -1.3337    0.0000 F   0  0  0  0  0  0  0  0  0  0  0  0
    7.6449   -0.2065    0.0000 F   0  0  0  0  0  0  0  0  0  0  0  0
    9.1849   -2.8737    0.0000 F   0  0  0  0  0  0  0  0  0  0  0  0
   11.6461    2.1037    0.0000 F   0  0  0  0  0  0  0  0  0  0  0  0
   13.1861   -0.5637    0.0000 F   0  0  0  0  0  0  0  0  0  0  0  0
   14.5197    0.2065    0.0000 F   0  0  0  0  0  0  0  0  0  0  0  0
   12.9797    2.8737    0.0000 F   0  0  0  0  0  0  0  0  0  0  0  0
   16.4171    3.0800    0.0000 F   0  0  0  0  0  0  0  0  0  0  0  0
   15.8534    0.9765    0.0000 F   0  0  0  0  0  0  0  0  0  0  0  0
   14.3134    3.6437    0.0000 F   0  0  0  0  0  0  0  0  0  0  0  0
    9.7485   -0.7700    0.0000 C   0  0  0  0  0  0  0  0  0  0  0  0
   11.0824    0.0000    0.0000 C   0  0  0  0  0  0  0  0  0  0  0  0
    8.4149   -1.5400    0.0000 C   0  0  0  0  0  0  0  0  0  0  0  0
   12.4161    0.7700    0.0000 C   0  0  0  0  0  0  0  0  0  0  0  0
    7.0812   -2.3100    0.0000 C   0  0  0  0  0  0  0  0  0  0  0  0
   13.7497    1.5400    0.0000 C   0  0  0  0  0  0  0  0  0  0  0  0
    5.7475   -1.5400    0.0000 C   0  0  0  0  0  0  0  0  0  0  0  0
   15.0834    2.3100    0.0000 C   0  0  0  0  0  0  0  0  0  0  0  0
  1  4  1  0  0  0  0
  2  4  1  0  0  0  0
  3  4  1  0  0  0  0
  4 24  1  0  0  0  0
  5 18  1  0  0  0  0
  6 18  1  0  0  0  0
  7 19  1  0  0  0  0
  8 19  1  0  0  0  0
  9 20  1  0  0  0  0
 10 20  1  0  0  0  0
 11 21  1  0  0  0  0
 12 21  1  0  0  0  0
 13 23  1  0  0  0  0
 14 23  1  0  0  0  0
 15 25  1  0  0  0  0
 16 25  1  0  0  0  0
 17 25  1  0  0  0  0
 18 19  1  0  0  0  0
 18 20  1  0  0  0  0
 19 21  1  0  0  0  0
 20 22  1  0  0  0  0
 21 23  1  0  0  0  0
 22 24  1  0  0  0  0
 23 25  1  0  0  0  0
M  END
>  <INPUT>
DTXSID50229163

>  <FOUND_BY>
DSSTox_Substance_Id

>  <DTXSID>
DTXSID50229163

>  <PREFERRED_NAME>
Trichloro((perfluorohexyl)ethyl)silane

>  <CASRN>
78560-45-9

>  <INCHIKEY>
PISDRBMXQBSCIP-UHFFFAOYSA-N

>  <IUPAC_NAME>
Trichloro(3,3,4,4,5,5,6,6,7,7,8,8,8-tridecafluorooctyl)silane

>  <SMILES>
FC(F)(F)C(F)(F)C(F)(F)C(F)(F)C(F)(F)C(F)(F)CC[Si](Cl)(Cl)Cl

>  <INCHI_STRING>
InChI=1S/C8H4Cl3F13Si/c9-25(10,11)2-1-3(12,13)4(14,15)5(16,17)6(18,19)7(20,21)8(22,23)24/h1-2H2

>  <MOLECULAR_FORMULA>
C8H4Cl3F13Si

>  <AVERAGE_MASS>
481.53

>  <MONOISOTOPIC_MASS>
479.8940259

>  <MOL_FILE>
MOL_FILE

$$$$

  -INDIGO-02112615072D

 25 24  0  0  0  0  0  0  0  0999 V2000
    2.4334    0.6669    0.0000 Cl  0  0  0  0  0  0  0  0  0  0  0  0
    3.9734    2.2068    0.0000 Cl  0  0  0  0  0  0  0  0  0  0  0  0
    3.9735    0.6669    0.0000 Si  0  0  0  0  0  0  0  0  0  0  0  0
    9.3635    0.8733    0.0000 F   0  0  0  0  0  0  0  0  0  0  0  0
    9.3636   -2.2069    0.0000 F   0  0  0  0  0  0  0  0  0  0  0  0
    7.8235    0.8730    0.0000 F   0  0  0  0  0  0  0  0  0  0  0  0
    7.8236   -2.2069    0.0000 F   0  0  0  0  0  0  0  0  0  0  0  0
   10.9037    0.8731    0.0000 F   0  0  0  0  0  0  0  0  0  0  0  0
   10.9037   -2.2070    0.0000 F   0  0  0  0  0  0  0  0  0  0  0  0
   12.4438    0.8731    0.0000 F   0  0  0  0  0  0  0  0  0  0  0  0
   12.4437   -2.2070    0.0000 F   0  0  0  0  0  0  0  0  0  0  0  0
   13.9837   -2.2068    0.0000 F   0  0  0  0  0  0  0  0  0  0  0  0
   13.9837    0.8732    0.0000 F   0  0  0  0  0  0  0  0  0  0  0  0
   17.0637   -0.6669    0.0000 F   0  0  0  0  0  0  0  0  0  0  0  0
   15.5237   -2.2068    0.0000 F   0  0  0  0  0  0  0  0  0  0  0  0
   15.5237    0.8731    0.0000 F   0  0  0  0  0  0  0  0  0  0  0  0
    9.3635   -0.6668    0.0000 C   0  0  0  0  0  0  0  0  0  0  0  0
    7.8236   -0.6669    0.0000 C   0  0  0  0  0  0  0  0  0  0  0  0
   10.9037   -0.6669    0.0000 C   0  0  0  0  0  0  0  0  0  0  0  0
    6.2836   -0.6668    0.0000 C   0  0  0  0  0  0  0  0  0  0  0  0
   12.4437   -0.6669    0.0000 C   0  0  0  0  0  0  0  0  0  0  0  0
    5.5135    0.6669    0.0000 C   0  0  0  0  0  0  0  0  0  0  0  0
   13.9836   -0.6669    0.0000 C   0  0  0  0  0  0  0  0  0  0  0  0
   15.5237   -0.6669    0.0000 C   0  0  0  0  0  0  0  0  0  0  0  0
    3.9734   -0.8731    0.0000 C   0  0  0  0  0  0  0  0  0  0  0  0
  1  3  1  0  0  0  0
  2  3  1  0  0  0  0
  3 22  1  0  0  0  0
  3 25  1  0  0  0  0
  4 17  1  0  0  0  0
  5 17  1  0  0  0  0
  6 18  1  0  0  0  0
  7 18  1  0  0  0  0
  8 19  1  0  0  0  0
  9 19  1  0  0  0  0
 10 21  1  0  0  0  0
 11 21  1  0  0  0  0
 12 23  1  0  0  0  0
 13 23  1  0  0  0  0
 14 24  1  0  0  0  0
 15 24  1  0  0  0  0
 16 24  1  0  0  0  0
 17 18  1  0  0  0  0
 17 19  1  0  0  0  0
 18 20  1  0  0  0  0
 19 21  1  0  0  0  0
 20 22  1  0  0  0  0
 21 23  1  0  0  0  0
 23 24  1  0  0  0  0
M  END
>  <INPUT>
DTXSID00223797

>  <FOUND_BY>
DSSTox_Substance_Id

>  <DTXSID>
DTXSID00223797

>  <PREFERRED_NAME>
Dichloromethyl((perfluorohexyl)ethyl)silane

>  <CASRN>
73609-36-6

>  <INCHIKEY>
VBDMVWQNRXVEGC-UHFFFAOYSA-N

>  <IUPAC_NAME>
Dichloro(methyl)(3,3,4,4,5,5,6,6,7,7,8,8,8-tridecafluorooctyl)silane

>  <SMILES>
C[Si](Cl)(Cl)CCC(F)(F)C(F)(F)C(F)(F)C(F)(F)C(F)(F)C(F)(F)F

>  <INCHI_STRING>
InChI=1S/C9H7Cl2F13Si/c1-25(10,11)3-2-4(12,13)5(14,15)6(16,17)7(18,19)8(20,21)9(22,23)24/h2-3H2,1H3


>  <MOLECULAR_FORMULA>
C9H7Cl2F13Si

>  <AVERAGE_MASS>
461.12

>  <MONOISOTOPIC_MASS>
459.9486483

>  <MOL_FILE>
MOL_FILE

$$$$

  -INDIGO-02112615072D

 28 27  0  0  0  0  0  0  0  0999 V2000
    1.5400   -2.6673    0.0000 O   0  0  0  0  0  0  0  0  0  0  0  0
    2.3100   -1.3337    0.0000 C   0  0  0  0  0  0  0  0  0  0  0  0
    3.8500   -1.3337    0.0000 O   0  0  0  0  0  0  0  0  0  0  0  0
    4.6200   -2.6673    0.0000 C   0  0  0  0  0  0  0  0  0  0  0  0
    6.1600   -2.6673    0.0000 C   0  0  0  0  0  0  0  0  0  0  0  0
    6.1600   -1.1273    0.0000 F   0  0  0  0  0  0  0  0  0  0  0  0
    6.1600   -4.2073    0.0000 F   0  0  0  0  0  0  0  0  0  0  0  0
    7.7000   -2.6673    0.0000 C   0  0  0  0  0  0  0  0  0  0  0  0
    7.7000   -1.1273    0.0000 F   0  0  0  0  0  0  0  0  0  0  0  0
    7.7000   -4.2073    0.0000 F   0  0  0  0  0  0  0  0  0  0  0  0
    9.2400   -2.6673    0.0000 C   0  0  0  0  0  0  0  0  0  0  0  0
    9.2400   -1.1273    0.0000 F   0  0  0  0  0  0  0  0  0  0  0  0
    9.2400   -4.2073    0.0000 F   0  0  0  0  0  0  0  0  0  0  0  0
   10.7800   -2.6673    0.0000 C   0  0  0  0  0  0  0  0  0  0  0  0
   10.7800   -1.1273    0.0000 F   0  0  0  0  0  0  0  0  0  0  0  0
   10.7800   -4.2073    0.0000 F   0  0  0  0  0  0  0  0  0  0  0  0
   12.3200   -2.6673    0.0000 C   0  0  0  0  0  0  0  0  0  0  0  0
   12.3200   -1.1273    0.0000 F   0  0  0  0  0  0  0  0  0  0  0  0
   12.3200   -4.2073    0.0000 F   0  0  0  0  0  0  0  0  0  0  0  0
   13.8600   -2.6673    0.0000 C   0  0  0  0  0  0  0  0  0  0  0  0
   13.8600   -1.1273    0.0000 F   0  0  0  0  0  0  0  0  0  0  0  0
   13.8600   -4.2073    0.0000 F   0  0  0  0  0  0  0  0  0  0  0  0
   15.4000   -2.6673    0.0000 C   0  0  0  0  0  0  0  0  0  0  0  0
   16.9400   -2.6673    0.0000 F   0  0  0  0  0  0  0  0  0  0  0  0
   15.4000   -1.1273    0.0000 F   0  0  0  0  0  0  0  0  0  0  0  0
   15.4000   -4.2073    0.0000 F   0  0  0  0  0  0  0  0  0  0  0  0
    1.5400    0.0000    0.0000 C   0  0  0  0  0  0  0  0  0  0  0  0
    0.0000    0.0000    0.0000 C   0  0  0  0  0  0  0  0  0  0  0  0
  1  2  2  0  0  0  0
  2  3  1  0  0  0  0
  3  4  1  0  0  0  0
  4  5  1  0  0  0  0
  5  6  1  0  0  0  0
  5  7  1  0  0  0  0
  5  8  1  0  0  0  0
  8  9  1  0  0  0  0
  8 10  1  0  0  0  0
  8 11  1  0  0  0  0
 11 12  1  0  0  0  0
 11 13  1  0  0  0  0
 11 14  1  0  0  0  0
 14 15  1  0  0  0  0
 14 16  1  0  0  0  0
 14 17  1  0  0  0  0
 17 18  1  0  0  0  0
 17 19  1  0  0  0  0
 17 20  1  0  0  0  0
 20 21  1  0  0  0  0
 20 22  1  0  0  0  0
 20 23  1  0  0  0  0
 23 24  1  0  0  0  0
 23 25  1  0  0  0  0
 23 26  1  0  0  0  0
  2 27  1  0  0  0  0
 27 28  2  0  0  0  0
M  END
>  <INPUT>
DTXSID5059799

>  <FOUND_BY>
DSSTox_Substance_Id

>  <DTXSID>
DTXSID5059799

>  <PREFERRED_NAME>
1H,1H-Perfluorooctyl acrylate

>  <CASRN>
307-98-2

>  <INCHIKEY>
YSQGYEYXKXGAQA-UHFFFAOYSA-N

>  <IUPAC_NAME>
2,2,3,3,4,4,5,5,6,6,7,7,8,8,8-Pentadecafluorooctyl prop-2-enoate

>  <SMILES>
FC(F)(F)C(F)(F)C(F)(F)C(F)(F)C(F)(F)C(F)(F)C(F)(F)COC(=O)C=C

>  <INCHI_STRING>
InChI=1S/C11H5F15O2/c1-2-4(27)28-3-5(12,13)6(14,15)7(16,17)8(18,19)9(20,21)10(22,23)11(24,25)26/h2H,1,3H2

>  <MOLECULAR_FORMULA>
C11H5F15O2

>  <AVERAGE_MASS>
454.135

>  <MONOISOTOPIC_MASS>
454.005001846

>  <MOL_FILE>
MOL_FILE

$$$$

  -INDIGO-02112615072D

 14 13  0  0  0  0  0  0  0  0999 V2000
    4.4137   -1.1551    0.0000 Si  0  0  0  0  0  0  0  0  0  0  0  0
    4.9775    0.9486    0.0000 F   0  0  0  0  0  0  0  0  0  0  0  0
    6.5175   -1.7186    0.0000 F   0  0  0  0  0  0  0  0  0  0  0  0
    7.8512   -0.9486    0.0000 F   0  0  0  0  0  0  0  0  0  0  0  0
    6.3112    1.7186    0.0000 F   0  0  0  0  0  0  0  0  0  0  0  0
    9.7485    1.9251    0.0000 F   0  0  0  0  0  0  0  0  0  0  0  0
    9.1849   -0.1786    0.0000 F   0  0  0  0  0  0  0  0  0  0  0  0
    7.6449    2.4886    0.0000 F   0  0  0  0  0  0  0  0  0  0  0  0
    5.7475   -0.3851    0.0000 C   0  0  0  0  0  0  0  0  0  0  0  0
    7.0812    0.3851    0.0000 C   0  0  0  0  0  0  0  0  0  0  0  0
    3.0800   -1.9251    0.0000 C   0  0  0  0  0  0  0  0  0  0  0  0
    3.6437    0.1786    0.0000 C   0  0  0  0  0  0  0  0  0  0  0  0
    5.1837   -2.4886    0.0000 C   0  0  0  0  0  0  0  0  0  0  0  0
    8.4149    1.1551    0.0000 C   0  0  0  0  0  0  0  0  0  0  0  0
  1  9  1  0  0  0  0
  1 11  1  0  0  0  0
  1 12  1  0  0  0  0
  1 13  1  0  0  0  0
  2  9  1  0  0  0  0
  3  9  1  0  0  0  0
  4 10  1  0  0  0  0
  5 10  1  0  0  0  0
  6 14  1  0  0  0  0
  7 14  1  0  0  0  0
  8 14  1  0  0  0  0
  9 10  1  0  0  0  0
 10 14  1  0  0  0  0
M  END
>  <INPUT>
DTXSID70400078

>  <FOUND_BY>
DSSTox_Substance_Id

>  <DTXSID>
DTXSID70400078

>  <PREFERRED_NAME>
(Heptafluoropropyl)trimethylsilane

>  <CASRN>
3834-42-2

>  <INCHIKEY>
PKLASFRWKXWKII-UHFFFAOYSA-N

>  <IUPAC_NAME>
(Heptafluoropropyl)(trimethyl)silane

>  <SMILES>
C[Si](C)(C)C(F)(F)C(F)(F)C(F)(F)F

>  <INCHI_STRING>
InChI=1S/C6H9F7Si/c1-14(2,3)6(12,13)4(7,8)5(9,10)11/h1-3H3

>  <MOLECULAR_FORMULA>
C6H9F7Si

>  <AVERAGE_MASS>
242.212

>  <MONOISOTOPIC_MASS>
242.036173966

>  <MOL_FILE>
MOL_FILE

$$$$

  -INDIGO-02112615072D

 28 27  0  0  0  0  0  0  0  0999 V2000
   -6.5449    1.3337    0.0000 C   0  0  0  0  0  0  0  0  0  0  0  0
   -5.7749    0.0000    0.0000 C   0  0  0  0  0  0  0  0  0  0  0  0
   -4.2349    0.0000    0.0000 C   0  0  0  0  0  0  0  0  0  0  0  0
   -2.6949    0.0000    0.0000 C   0  0  0  0  0  0  0  0  0  0  0  0
   -1.1549    0.0000    0.0000 C   0  0  0  0  0  0  0  0  0  0  0  0
    0.3851    0.0000    0.0000 C   0  0  0  0  0  0  0  0  0  0  0  0
    1.9251    0.0000    0.0000 C   0  0  0  0  0  0  0  0  0  0  0  0
    3.4649    0.0000    0.0000 C   0  0  0  0  0  0  0  0  0  0  0  0
    5.0049    0.0000    0.0000 C   0  0  0  0  0  0  0  0  0  0  0  0
    6.5449    0.0000    0.0000 C   0  0  0  0  0  0  0  0  0  0  0  0
   -8.0849    1.3337    0.0000 O   0  0  0  0  0  0  0  0  0  0  0  0
   -4.2349   -1.5400    0.0000 F   0  0  0  0  0  0  0  0  0  0  0  0
   -4.2349    1.5400    0.0000 F   0  0  0  0  0  0  0  0  0  0  0  0
   -2.6949   -1.5400    0.0000 F   0  0  0  0  0  0  0  0  0  0  0  0
   -2.6949    1.5400    0.0000 F   0  0  0  0  0  0  0  0  0  0  0  0
   -1.1549   -1.5400    0.0000 F   0  0  0  0  0  0  0  0  0  0  0  0
   -1.1549    1.5400    0.0000 F   0  0  0  0  0  0  0  0  0  0  0  0
    0.3851   -1.5400    0.0000 F   0  0  0  0  0  0  0  0  0  0  0  0
    0.3851    1.5400    0.0000 F   0  0  0  0  0  0  0  0  0  0  0  0
    1.9251   -1.5400    0.0000 F   0  0  0  0  0  0  0  0  0  0  0  0
    1.9251    1.5400    0.0000 F   0  0  0  0  0  0  0  0  0  0  0  0
    3.4649   -1.5400    0.0000 F   0  0  0  0  0  0  0  0  0  0  0  0
    3.4649    1.5400    0.0000 F   0  0  0  0  0  0  0  0  0  0  0  0
    5.0049   -1.5400    0.0000 F   0  0  0  0  0  0  0  0  0  0  0  0
    5.0049    1.5400    0.0000 F   0  0  0  0  0  0  0  0  0  0  0  0
    8.0849    0.0000    0.0000 F   0  0  0  0  0  0  0  0  0  0  0  0
    6.5449   -1.5400    0.0000 F   0  0  0  0  0  0  0  0  0  0  0  0
    6.5449    1.5400    0.0000 F   0  0  0  0  0  0  0  0  0  0  0  0
  1  2  1  0  0  0  0
  1 11  1  0  0  0  0
  2  3  1  0  0  0  0
  3  4  1  0  0  0  0
  3 12  1  0  0  0  0
  3 13  1  0  0  0  0
  4  5  1  0  0  0  0
  4 14  1  0  0  0  0
  4 15  1  0  0  0  0
  5  6  1  0  0  0  0
  5 16  1  0  0  0  0
  5 17  1  0  0  0  0
  6  7  1  0  0  0  0
  6 18  1  0  0  0  0
  6 19  1  0  0  0  0
  7  8  1  0  0  0  0
  7 20  1  0  0  0  0
  7 21  1  0  0  0  0
  8  9  1  0  0  0  0
  8 22  1  0  0  0  0
  8 23  1  0  0  0  0
  9 10  1  0  0  0  0
  9 24  1  0  0  0  0
  9 25  1  0  0  0  0
 10 26  1  0  0  0  0
 10 27  1  0  0  0  0
 10 28  1  0  0  0  0
M  END
>  <INPUT>
DTXSID7029904

>  <FOUND_BY>
DSSTox_Substance_Id

>  <DTXSID>
DTXSID7029904

>  <PREFERRED_NAME>
Fluorotelomer alcohol 8:2

>  <CASRN>
678-39-7

>  <INCHIKEY>
JJUBFBTUBACDHW-UHFFFAOYSA-N

>  <IUPAC_NAME>
3,3,4,4,5,5,6,6,7,7,8,8,9,9,10,10,10-Heptadecafluorodecan-1-ol

>  <SMILES>
OCCC(F)(F)C(F)(F)C(F)(F)C(F)(F)C(F)(F)C(F)(F)C(F)(F)C(F)(F)F

>  <INCHI_STRING>
InChI=1S/C10H5F17O/c11-3(12,1-2-28)4(13,14)5(15,16)6(17,18)7(19,20)8(21,22)9(23,24)10(25,26)27/h28H,1-2H2


>  <MOLECULAR_FORMULA>
C10H5F17O

>  <AVERAGE_MASS>
464.122

>  <MONOISOTOPIC_MASS>
464.006893552

>  <MOL_FILE>
MOL_FILE

$$$$

  -INDIGO-02112615072D

 26 24  0  0  0  0  0  0  0  0999 V2000
   -7.5456    0.1778    0.0000 K   0  0  0  0  0  0  0  0  0  0  0  0
   -5.5402    1.3530    0.0000 O   0  0  0  0  0  0  0  0  0  0  0  0
   -4.7739    0.0172    0.0000 C   0  0  0  0  0  0  0  0  0  0  0  0
   -5.5477   -1.3142    0.0000 O   0  0  0  0  0  0  0  0  0  0  0  0
   -3.2340    0.0129    0.0000 C   0  0  0  0  0  0  0  0  0  0  0  0
   -3.2384   -1.5270    0.0000 F   0  0  0  0  0  0  0  0  0  0  0  0
   -3.2297    1.5529    0.0000 F   0  0  0  0  0  0  0  0  0  0  0  0
   -1.6941    0.0086    0.0000 C   0  0  0  0  0  0  0  0  0  0  0  0
   -1.6984   -1.5313    0.0000 F   0  0  0  0  0  0  0  0  0  0  0  0
   -1.6897    1.5485    0.0000 F   0  0  0  0  0  0  0  0  0  0  0  0
   -0.1542    0.0042    0.0000 C   0  0  0  0  0  0  0  0  0  0  0  0
   -0.1585   -1.5357    0.0000 F   0  0  0  0  0  0  0  0  0  0  0  0
   -0.1498    1.5442    0.0000 F   0  0  0  0  0  0  0  0  0  0  0  0
    1.3858   -0.0001    0.0000 C   0  0  0  0  0  0  0  0  0  0  0  0
    1.3815   -1.5400    0.0000 F   0  0  0  0  0  0  0  0  0  0  0  0
    1.3902    1.5399    0.0000 F   0  0  0  0  0  0  0  0  0  0  0  0
    2.9257   -0.0043    0.0000 C   0  0  0  0  0  0  0  0  0  0  0  0
    2.9215   -1.5443    0.0000 F   0  0  0  0  0  0  0  0  0  0  0  0
    2.9301    1.5356    0.0000 F   0  0  0  0  0  0  0  0  0  0  0  0
    4.4657   -0.0086    0.0000 C   0  0  0  0  0  0  0  0  0  0  0  0
    4.4614   -1.5486    0.0000 F   0  0  0  0  0  0  0  0  0  0  0  0
    4.4701    1.5313    0.0000 F   0  0  0  0  0  0  0  0  0  0  0  0
    6.0057   -0.0130    0.0000 C   0  0  0  0  0  0  0  0  0  0  0  0
    6.0014   -1.5529    0.0000 F   0  0  0  0  0  0  0  0  0  0  0  0
    6.0099    1.5269    0.0000 F   0  0  0  0  0  0  0  0  0  0  0  0
    7.5456   -0.0173    0.0000 F   0  0  0  0  0  0  0  0  0  0  0  0
  3  2  1  0  0  0  0
  4  3  2  0  0  0  0
  5  3  1  0  0  0  0
  6  5  1  0  0  0  0
  7  5  1  0  0  0  0
  8  5  1  0  0  0  0
  9  8  1  0  0  0  0
 10  8  1  0  0  0  0
 11  8  1  0  0  0  0
 12 11  1  0  0  0  0
 13 11  1  0  0  0  0
 14 11  1  0  0  0  0
 15 14  1  0  0  0  0
 16 14  1  0  0  0  0
 17 14  1  0  0  0  0
 18 17  1  0  0  0  0
 19 17  1  0  0  0  0
 20 17  1  0  0  0  0
 21 20  1  0  0  0  0
 22 20  1  0  0  0  0
 23 20  1  0  0  0  0
 24 23  1  0  0  0  0
 25 23  1  0  0  0  0
 26 23  1  0  0  0  0
M  CHG  2   1   1   2  -1
M  END
>  <INPUT>
DTXSID00880026

>  <FOUND_BY>
DSSTox_Substance_Id

>  <DTXSID>
DTXSID00880026

>  <PREFERRED_NAME>
Potassium perfluorooctanoate

>  <CASRN>
2395-00-8

>  <INCHIKEY>
WPDDXKNWUVLZMQ-UHFFFAOYSA-M

>  <IUPAC_NAME>
Potassium pentadecafluorooctanoate

>  <SMILES>
[K+].[O-]C(=O)C(F)(F)C(F)(F)C(F)(F)C(F)(F)C(F)(F)C(F)(F)C(F)(F)F

>  <INCHI_STRING>
InChI=1S/C8HF15O2.K/c9-2(10,1(24)25)3(11,12)4(13,14)5(15,16)6(17,18)7(19,20)8(21,22)23;/h(H,24,25);/q;+1/p-1

>  <MOLECULAR_FORMULA>
C8F15KO2

>  <AVERAGE_MASS>
452.16

>  <MONOISOTOPIC_MASS>
451.92958318

>  <MOL_FILE>
MOL_FILE

$$$$

  -INDIGO-02112615072D

 29 28  0  0  0  0  0  0  0  0999 V2000
    4.6199    0.0125    0.0000 C   0  0  0  0  0  0  0  0  0  0  0  0
    3.0799    0.0083    0.0000 C   0  0  0  0  0  0  0  0  0  0  0  0
    1.5399    0.0042    0.0000 C   0  0  0  0  0  0  0  0  0  0  0  0
   -0.0001   -0.0001    0.0000 C   0  0  0  0  0  0  0  0  0  0  0  0
   -1.5399   -0.0043    0.0000 C   0  0  0  0  0  0  0  0  0  0  0  0
   -3.0799   -0.0086    0.0000 C   0  0  0  0  0  0  0  0  0  0  0  0
   -4.6199   -0.0127    0.0000 C   0  0  0  0  0  0  0  0  0  0  0  0
   -6.1599   -0.0169    0.0000 C   0  0  0  0  0  0  0  0  0  0  0  0
    6.1599    0.0168    0.0000 S   0  0  0  0  0  0  0  0  0  0  0  0
    7.6999    0.0210    0.0000 O   0  0  0  0  0  0  0  0  0  0  0  0
    6.1557    1.5568    0.0000 O   0  0  0  0  0  0  0  0  0  0  0  0
    6.1641   -1.5230    0.0000 O   0  0  0  0  0  0  0  0  0  0  0  0
    4.6157    1.5526    0.0000 F   0  0  0  0  0  0  0  0  0  0  0  0
    4.6242   -1.5273    0.0000 F   0  0  0  0  0  0  0  0  0  0  0  0
    3.0757    1.5483    0.0000 F   0  0  0  0  0  0  0  0  0  0  0  0
    3.0842   -1.5314    0.0000 F   0  0  0  0  0  0  0  0  0  0  0  0
    1.5357    1.5442    0.0000 F   0  0  0  0  0  0  0  0  0  0  0  0
    1.5442   -1.5357    0.0000 F   0  0  0  0  0  0  0  0  0  0  0  0
   -0.0043    1.5399    0.0000 F   0  0  0  0  0  0  0  0  0  0  0  0
    0.0042   -1.5399    0.0000 F   0  0  0  0  0  0  0  0  0  0  0  0
   -1.5440    1.5357    0.0000 F   0  0  0  0  0  0  0  0  0  0  0  0
   -1.5356   -1.5440    0.0000 F   0  0  0  0  0  0  0  0  0  0  0  0
   -3.0840    1.5314    0.0000 F   0  0  0  0  0  0  0  0  0  0  0  0
   -3.0756   -1.5483    0.0000 F   0  0  0  0  0  0  0  0  0  0  0  0
   -4.6240    1.5273    0.0000 F   0  0  0  0  0  0  0  0  0  0  0  0
   -4.6156   -1.5525    0.0000 F   0  0  0  0  0  0  0  0  0  0  0  0
   -7.6999   -0.0212    0.0000 F   0  0  0  0  0  0  0  0  0  0  0  0
   -6.1640    1.5231    0.0000 F   0  0  0  0  0  0  0  0  0  0  0  0
   -6.1556   -1.5568    0.0000 F   0  0  0  0  0  0  0  0  0  0  0  0
  1  2  1  0  0  0  0
  1  9  1  0  0  0  0
  1 13  1  0  0  0  0
  1 14  1  0  0  0  0
  2  3  1  0  0  0  0
  2 15  1  0  0  0  0
  2 16  1  0  0  0  0
  3  4  1  0  0  0  0
  3 17  1  0  0  0  0
  3 18  1  0  0  0  0
  4  5  1  0  0  0  0
  4 19  1  0  0  0  0
  4 20  1  0  0  0  0
  5  6  1  0  0  0  0
  5 21  1  0  0  0  0
  5 22  1  0  0  0  0
  6  7  1  0  0  0  0
  6 23  1  0  0  0  0
  6 24  1  0  0  0  0
  7  8  1  0  0  0  0
  7 25  1  0  0  0  0
  7 26  1  0  0  0  0
  8 27  1  0  0  0  0
  8 28  1  0  0  0  0
  8 29  1  0  0  0  0
  9 10  1  0  0  0  0
  9 11  2  0  0  0  0
  9 12  2  0  0  0  0
M  END
>  <INPUT>
DTXSID3031864

>  <FOUND_BY>
DSSTox_Substance_Id

>  <DTXSID>
DTXSID3031864

>  <PREFERRED_NAME>
Perfluorooctanesulfonic acid

>  <CASRN>
1763-23-1

>  <INCHIKEY>
YFSUTJLHUFNCNZ-UHFFFAOYSA-N

>  <IUPAC_NAME>
Heptadecafluorooctane-1-sulfonic acid

>  <SMILES>
OS(=O)(=O)C(F)(F)C(F)(F)C(F)(F)C(F)(F)C(F)(F)C(F)(F)C(F)(F)C(F)(F)F

>  <INCHI_STRING>
InChI=1S/C8HF17O3S/c9-1(10,3(13,14)5(17,18)7(21,22)23)2(11,12)4(15,16)6(19,20)8(24,25)29(26,27)28/h(H,26,27,28)


>  <MOLECULAR_FORMULA>
C8HF17O3S

>  <AVERAGE_MASS>
500.13

>  <MONOISOTOPIC_MASS>
499.937493837

>  <MOL_FILE>
MOL_FILE

$$$$

  -INDIGO-02112615072D

 16 15  0  0  0  0  0  0  0  0999 V2000
   10.0100   -1.3337    0.0000 F   0  0  0  0  0  0  0  0  0  0  0  0
    8.4700   -1.3337    0.0000 C   0  0  0  0  0  0  0  0  0  0  0  0
    8.4700    0.2063    0.0000 F   0  0  0  0  0  0  0  0  0  0  0  0
    8.4700   -2.8737    0.0000 F   0  0  0  0  0  0  0  0  0  0  0  0
    6.9300   -1.3337    0.0000 C   0  0  0  0  0  0  0  0  0  0  0  0
    6.9300    0.2063    0.0000 F   0  0  0  0  0  0  0  0  0  0  0  0
    6.9300   -2.8737    0.0000 F   0  0  0  0  0  0  0  0  0  0  0  0
    5.3900   -1.3337    0.0000 C   0  0  0  0  0  0  0  0  0  0  0  0
    5.3900    0.2063    0.0000 F   0  0  0  0  0  0  0  0  0  0  0  0
    5.3900   -2.8737    0.0000 F   0  0  0  0  0  0  0  0  0  0  0  0
    3.8500   -1.3337    0.0000 C   0  0  0  0  0  0  0  0  0  0  0  0
    3.8500    0.2063    0.0000 F   0  0  0  0  0  0  0  0  0  0  0  0
    3.8500   -2.8737    0.0000 F   0  0  0  0  0  0  0  0  0  0  0  0
    2.3100   -1.3337    0.0000 C   0  0  0  0  0  0  0  0  0  0  0  0
    1.5400    0.0000    0.0000 C   0  0  0  0  0  0  0  0  0  0  0  0
    0.0000    0.0000    0.0000 O   0  0  0  0  0  0  0  0  0  0  0  0
  1  2  1  0  0  0  0
  2  3  1  0  0  0  0
  2  4  1  0  0  0  0
  2  5  1  0  0  0  0
  5  6  1  0  0  0  0
  5  7  1  0  0  0  0
  5  8  1  0  0  0  0
  8  9  1  0  0  0  0
  8 10  1  0  0  0  0
  8 11  1  0  0  0  0
 11 12  1  0  0  0  0
 11 13  1  0  0  0  0
 11 14  1  0  0  0  0
 14 15  1  0  0  0  0
 15 16  1  0  0  0  0
M  END
>  <INPUT>
DTXSID1062122

>  <FOUND_BY>
DSSTox_Substance_Id

>  <DTXSID>
DTXSID1062122

>  <PREFERRED_NAME>
Fluorotelomer alcohol 4:2

>  <CASRN>
2043-47-2

>  <INCHIKEY>
JCMNMOBHVPONLD-UHFFFAOYSA-N

>  <IUPAC_NAME>
3,3,4,4,5,5,6,6,6-Nonafluorohexan-1-ol

>  <SMILES>
OCCC(F)(F)C(F)(F)C(F)(F)C(F)(F)F

>  <INCHI_STRING>
InChI=1S/C6H5F9O/c7-3(8,1-2-16)4(9,10)5(11,12)6(13,14)15/h16H,1-2H2


>  <MOLECULAR_FORMULA>
C6H5F9O

>  <AVERAGE_MASS>
264.091

>  <MONOISOTOPIC_MASS>
264.019668248

>  <MOL_FILE>
MOL_FILE

$$$$

  -INDIGO-02112615072D

 11 10  0  0  0  0  0  0  0  0999 V2000
    8.9785    0.8454    0.0000 F   0  0  0  0  0  0  0  0  0  0  0  0
   10.5187   -1.8219    0.0000 F   0  0  0  0  0  0  0  0  0  0  0  0
   12.4161   -0.4881    0.0000 F   0  0  0  0  0  0  0  0  0  0  0  0
   11.0824    1.8219    0.0000 F   0  0  0  0  0  0  0  0  0  0  0  0
    7.0812   -0.4881    0.0000 O   0  0  0  0  0  0  0  0  0  0  0  0
    9.7485   -0.4881    0.0000 C   0  0  0  0  0  0  0  0  0  0  0  0
    8.4149   -1.2581    0.0000 C   0  0  0  0  0  0  0  0  0  0  0  0
   11.0824    0.2819    0.0000 C   0  0  0  0  0  0  0  0  0  0  0  0
    5.7475   -1.2581    0.0000 C   0  0  0  0  0  0  0  0  0  0  0  0
    4.4137   -0.4881    0.0000 C   0  0  0  0  0  0  0  0  0  0  0  0
    3.0800   -1.2581    0.0000 C   0  0  0  0  0  0  0  0  0  0  0  0
  1  6  1  0  0  0  0
  2  6  1  0  0  0  0
  3  8  1  0  0  0  0
  4  8  1  0  0  0  0
  5  7  1  0  0  0  0
  5  9  1  0  0  0  0
  6  7  1  0  0  0  0
  6  8  1  0  0  0  0
  9 10  1  0  0  0  0
 10 11  2  0  0  0  0
M  END
>  <INPUT>
DTXSID60382617

>  <FOUND_BY>
DSSTox_Substance_Id

>  <DTXSID>
DTXSID60382617

>  <PREFERRED_NAME>
3-(2,2,3,3-Tetrafluoropropoxy)prop-1-ene

>  <CASRN>
681-68-5

>  <INCHIKEY>
MEIXYCHYADMPTF-UHFFFAOYSA-N

>  <IUPAC_NAME>
3-(2,2,3,3-Tetrafluoropropoxy)prop-1-ene

>  <SMILES>
FC(F)C(F)(F)COCC=C

>  <INCHI_STRING>
InChI=1S/C6H8F4O/c1-2-3-11-4-6(9,10)5(7)8/h2,5H,1,3-4H2

>  <MOLECULAR_FORMULA>
C6H8F4O

>  <AVERAGE_MASS>
172.123

>  <MONOISOTOPIC_MASS>
172.05112753

>  <MOL_FILE>
MOL_FILE

$$$$

  -INDIGO-02112615072D

  9  8  0  0  0  0  0  0  0  0999 V2000
    4.9775    1.3337    0.0000 F   0  0  0  0  0  0  0  0  0  0  0  0
    6.5175   -1.3337    0.0000 F   0  0  0  0  0  0  0  0  0  0  0  0
    3.0800    0.0000    0.0000 F   0  0  0  0  0  0  0  0  0  0  0  0
    4.4137   -2.3100    0.0000 F   0  0  0  0  0  0  0  0  0  0  0  0
    7.0812    0.7700    0.0000 N   0  0  0  0  0  0  0  0  0  0  0  0
    5.7475    0.0000    0.0000 C   0  0  0  0  0  0  0  0  0  0  0  0
    4.4137   -0.7700    0.0000 C   0  0  0  0  0  0  0  0  0  0  0  0
    8.4149    0.0000    0.0000 C   0  0  0  0  0  0  0  0  0  0  0  0
    7.0812    2.3100    0.0000 C   0  0  0  0  0  0  0  0  0  0  0  0
  1  6  1  0  0  0  0
  2  6  1  0  0  0  0
  3  7  1  0  0  0  0
  4  7  1  0  0  0  0
  5  6  1  0  0  0  0
  5  8  1  0  0  0  0
  5  9  1  0  0  0  0
  6  7  1  0  0  0  0
M  END
>  <INPUT>
DTXSID00620545

>  <FOUND_BY>
DSSTox_Substance_Id

>  <DTXSID>
DTXSID00620545

>  <PREFERRED_NAME>
N,N-dimethyl-2H-perfluoroethanamine

>  <CASRN>
1550-50-1

>  <INCHIKEY>
VIRGYRZBWQFJGJ-UHFFFAOYSA-N

>  <IUPAC_NAME>
1,1,2,2-Tetrafluoro-N,N-dimethylethan-1-amine

>  <SMILES>
CN(C)C(F)(F)C(F)F

>  <INCHI_STRING>
InChI=1S/C4H7F4N/c1-9(2)4(7,8)3(5)6/h3H,1-2H3

>  <MOLECULAR_FORMULA>
C4H7F4N

>  <AVERAGE_MASS>
145.101

>  <MONOISOTOPIC_MASS>
145.051461881

>  <MOL_FILE>
MOL_FILE

$$$$

  -INDIGO-02112615072D

 31 30  0  0  0  0  0  0  0  0999 V2000
   19.5720   -3.7634    0.0000 C   0  0  0  0  0  0  0  0  0  0  0  0
   18.0405   -3.6025    0.0000 C   0  0  0  0  0  0  0  0  0  0  0  0
   16.5089   -3.4415    0.0000 C   0  0  0  0  0  0  0  0  0  0  0  0
   14.9773   -3.2805    0.0000 C   0  0  0  0  0  0  0  0  0  0  0  0
   13.4458   -3.1195    0.0000 C   0  0  0  0  0  0  0  0  0  0  0  0
   11.9142   -2.9586    0.0000 C   0  0  0  0  0  0  0  0  0  0  0  0
   10.3826   -2.7976    0.0000 C   0  0  0  0  0  0  0  0  0  0  0  0
    8.8511   -2.6366    0.0000 C   0  0  0  0  0  0  0  0  0  0  0  0
    7.3195   -2.4756    0.0000 C   0  0  0  0  0  0  0  0  0  0  0  0
    5.7880   -2.3147    0.0000 C   0  0  0  0  0  0  0  0  0  0  0  0
   20.1984   -5.1702    0.0000 O   0  0  0  0  0  0  0  0  0  0  0  0
   20.4772   -2.5175    0.0000 O   0  0  0  0  0  0  0  0  0  0  0  0
   18.2014   -2.0709    0.0000 F   0  0  0  0  0  0  0  0  0  0  0  0
   17.8795   -5.1340    0.0000 F   0  0  0  0  0  0  0  0  0  0  0  0
   16.6699   -1.9099    0.0000 F   0  0  0  0  0  0  0  0  0  0  0  0
   16.3479   -4.9730    0.0000 F   0  0  0  0  0  0  0  0  0  0  0  0
   15.1383   -1.7489    0.0000 F   0  0  0  0  0  0  0  0  0  0  0  0
   14.8164   -4.8121    0.0000 F   0  0  0  0  0  0  0  0  0  0  0  0
   13.6067   -1.5880    0.0000 F   0  0  0  0  0  0  0  0  0  0  0  0
   13.2848   -4.6511    0.0000 F   0  0  0  0  0  0  0  0  0  0  0  0
   12.0752   -1.4270    0.0000 F   0  0  0  0  0  0  0  0  0  0  0  0
   11.7532   -4.4901    0.0000 F   0  0  0  0  0  0  0  0  0  0  0  0
   10.5436   -1.2660    0.0000 F   0  0  0  0  0  0  0  0  0  0  0  0
   10.2217   -4.3291    0.0000 F   0  0  0  0  0  0  0  0  0  0  0  0
    9.0121   -1.1050    0.0000 F   0  0  0  0  0  0  0  0  0  0  0  0
    8.6901   -4.1682    0.0000 F   0  0  0  0  0  0  0  0  0  0  0  0
    7.4805   -0.9441    0.0000 F   0  0  0  0  0  0  0  0  0  0  0  0
    7.1585   -4.0072    0.0000 F   0  0  0  0  0  0  0  0  0  0  0  0
    4.2564   -2.1537    0.0000 F   0  0  0  0  0  0  0  0  0  0  0  0
    5.9489   -0.7831    0.0000 F   0  0  0  0  0  0  0  0  0  0  0  0
    5.6270   -3.8462    0.0000 F   0  0  0  0  0  0  0  0  0  0  0  0
  1  2  1  0  0  0  0
  1 12  1  0  0  0  0
  1 11  2  0  0  0  0
  2  3  1  0  0  0  0
  2 13  1  0  0  0  0
  2 14  1  0  0  0  0
  3  4  1  0  0  0  0
  3 15  1  0  0  0  0
  3 16  1  0  0  0  0
  4  5  1  0  0  0  0
  4 17  1  0  0  0  0
  4 18  1  0  0  0  0
  5  6  1  0  0  0  0
  5 19  1  0  0  0  0
  5 20  1  0  0  0  0
  6  7  1  0  0  0  0
  6 21  1  0  0  0  0
  6 22  1  0  0  0  0
  7  8  1  0  0  0  0
  7 23  1  0  0  0  0
  7 24  1  0  0  0  0
  8  9  1  0  0  0  0
  8 25  1  0  0  0  0
  8 26  1  0  0  0  0
  9 10  1  0  0  0  0
  9 27  1  0  0  0  0
  9 28  1  0  0  0  0
 10 29  1  0  0  0  0
 10 30  1  0  0  0  0
 10 31  1  0  0  0  0
M  END
>  <INPUT>
DTXSID3031860

>  <FOUND_BY>
DSSTox_Substance_Id

>  <DTXSID>
DTXSID3031860

>  <PREFERRED_NAME>
Perfluorodecanoic acid

>  <CASRN>
335-76-2

>  <INCHIKEY>
PCIUEQPBYFRTEM-UHFFFAOYSA-N

>  <IUPAC_NAME>
Nonadecafluorodecanoic acid

>  <SMILES>
OC(=O)C(F)(F)C(F)(F)C(F)(F)C(F)(F)C(F)(F)C(F)(F)C(F)(F)C(F)(F)C(F)(F)F

>  <INCHI_STRING>
InChI=1S/C10HF19O2/c11-2(12,1(30)31)3(13,14)4(15,16)5(17,18)6(19,20)7(21,22)8(23,24)9(25,26)10(27,28)29/h(H,30,31)


>  <MOLECULAR_FORMULA>
C10HF19O2

>  <AVERAGE_MASS>
514.086

>  <MONOISOTOPIC_MASS>
513.967314369

>  <MOL_FILE>
MOL_FILE

$$$$

  -INDIGO-02112615072D

 20 19  0  0  0  0  0  0  0  0999 V2000
    6.3112    0.8454    0.0000 F   0  0  0  0  0  0  0  0  0  0  0  0
    7.8512   -1.8219    0.0000 F   0  0  0  0  0  0  0  0  0  0  0  0
    7.6449    1.6154    0.0000 F   0  0  0  0  0  0  0  0  0  0  0  0
    9.1849   -1.0519    0.0000 F   0  0  0  0  0  0  0  0  0  0  0  0
    4.9775    0.0754    0.0000 F   0  0  0  0  0  0  0  0  0  0  0  0
    6.5175   -2.5919    0.0000 F   0  0  0  0  0  0  0  0  0  0  0  0
   10.5187   -0.2819    0.0000 F   0  0  0  0  0  0  0  0  0  0  0  0
    8.9785    2.3856    0.0000 F   0  0  0  0  0  0  0  0  0  0  0  0
    3.0800   -2.7983    0.0000 F   0  0  0  0  0  0  0  0  0  0  0  0
    3.6437   -0.6946    0.0000 F   0  0  0  0  0  0  0  0  0  0  0  0
    5.1837   -3.3619    0.0000 F   0  0  0  0  0  0  0  0  0  0  0  0
   12.4161    1.0519    0.0000 O   0  0  0  0  0  0  0  0  0  0  0  0
   11.0824    3.3619    0.0000 O   0  0  0  0  0  0  0  0  0  0  0  0
    7.0812   -0.4881    0.0000 C   0  0  0  0  0  0  0  0  0  0  0  0
    8.4149    0.2819    0.0000 C   0  0  0  0  0  0  0  0  0  0  0  0
    5.7475   -1.2581    0.0000 C   0  0  0  0  0  0  0  0  0  0  0  0
    9.7485    1.0519    0.0000 C   0  0  0  0  0  0  0  0  0  0  0  0
    4.4137   -2.0281    0.0000 C   0  0  0  0  0  0  0  0  0  0  0  0
   11.0824    1.8219    0.0000 C   0  0  0  0  0  0  0  0  0  0  0  0
   13.7497    1.8219    0.0000 C   0  0  0  0  0  0  0  0  0  0  0  0
  1 14  1  0  0  0  0
  2 14  1  0  0  0  0
  3 15  1  0  0  0  0
  4 15  1  0  0  0  0
  5 16  1  0  0  0  0
  6 16  1  0  0  0  0
  7 17  1  0  0  0  0
  8 17  1  0  0  0  0
  9 18  1  0  0  0  0
 10 18  1  0  0  0  0
 11 18  1  0  0  0  0
 12 19  1  0  0  0  0
 12 20  1  0  0  0  0
 13 19  2  0  0  0  0
 14 15  1  0  0  0  0
 14 16  1  0  0  0  0
 15 17  1  0  0  0  0
 16 18  1  0  0  0  0
 17 19  1  0  0  0  0
M  END
>  <INPUT>
DTXSID20335700

>  <FOUND_BY>
DSSTox_Substance_Id

>  <DTXSID>
DTXSID20335700

>  <PREFERRED_NAME>
Methyl perfluorohexanoate

>  <CASRN>
424-18-0

>  <INCHIKEY>
NJXMLQHJFDKLKL-UHFFFAOYSA-N

>  <IUPAC_NAME>
Methyl undecafluorohexanoate

>  <SMILES>
COC(=O)C(F)(F)C(F)(F)C(F)(F)C(F)(F)C(F)(F)F

>  <INCHI_STRING>
InChI=1S/C7H3F11O2/c1-20-2(19)3(8,9)4(10,11)5(12,13)6(14,15)7(16,17)18/h1H3

>  <MOLECULAR_FORMULA>
C7H3F11O2

>  <AVERAGE_MASS>
328.081

>  <MONOISOTOPIC_MASS>
327.99573913

>  <MOL_FILE>
MOL_FILE

$$$$

  -INDIGO-02112615072D

 19 18  0  0  0  0  0  0  0  0999 V2000
    4.2279    0.0513    0.0000 C   0  0  0  0  0  0  0  0  0  0  0  0
    2.6880    0.0342    0.0000 C   0  0  0  0  0  0  0  0  0  0  0  0
    1.1478    0.0171    0.0000 C   0  0  0  0  0  0  0  0  0  0  0  0
   -0.3924    0.0000    0.0000 C   0  0  0  0  0  0  0  0  0  0  0  0
   -1.9326   -0.0171    0.0000 C   0  0  0  0  0  0  0  0  0  0  0  0
   -3.4727   -0.0342    0.0000 C   0  0  0  0  0  0  0  0  0  0  0  0
   -5.0128   -0.0513    0.0000 F   0  0  0  0  0  0  0  0  0  0  0  0
    4.9832    1.3938    0.0000 O   0  0  0  0  0  0  0  0  0  0  0  0
    5.0128   -1.2740    0.0000 O   0  0  0  0  0  0  0  0  0  0  0  0
    2.7050   -1.5060    0.0000 F   0  0  0  0  0  0  0  0  0  0  0  0
    2.6708    1.5744    0.0000 F   0  0  0  0  0  0  0  0  0  0  0  0
    1.1649   -1.5231    0.0000 F   0  0  0  0  0  0  0  0  0  0  0  0
    1.1307    1.5573    0.0000 F   0  0  0  0  0  0  0  0  0  0  0  0
   -0.3753   -1.5401    0.0000 F   0  0  0  0  0  0  0  0  0  0  0  0
   -0.4094    1.5401    0.0000 F   0  0  0  0  0  0  0  0  0  0  0  0
   -1.9154   -1.5573    0.0000 F   0  0  0  0  0  0  0  0  0  0  0  0
   -1.9497    1.5230    0.0000 F   0  0  0  0  0  0  0  0  0  0  0  0
   -3.4555   -1.5744    0.0000 F   0  0  0  0  0  0  0  0  0  0  0  0
   -3.4898    1.5060    0.0000 F   0  0  0  0  0  0  0  0  0  0  0  0
  1  2  1  0  0  0  0
  1  9  1  0  0  0  0
  1  8  2  0  0  0  0
  2  3  1  0  0  0  0
  2 10  1  0  0  0  0
  2 11  1  0  0  0  0
  3  4  1  0  0  0  0
  3 12  1  0  0  0  0
  3 13  1  0  0  0  0
  4  5  1  0  0  0  0
  4 14  1  0  0  0  0
  4 15  1  0  0  0  0
  5  6  1  0  0  0  0
  5 16  1  0  0  0  0
  5 17  1  0  0  0  0
  6  7  1  0  0  0  0
  6 18  1  0  0  0  0
  6 19  1  0  0  0  0
M  END
>  <INPUT>
DTXSID3031862

>  <FOUND_BY>
DSSTox_Substance_Id

>  <DTXSID>
DTXSID3031862

>  <PREFERRED_NAME>
Perfluorohexanoic acid

>  <CASRN>
307-24-4

>  <INCHIKEY>
PXUULQAPEKKVAH-UHFFFAOYSA-N

>  <IUPAC_NAME>
Undecafluorohexanoic acid

>  <SMILES>
OC(=O)C(F)(F)C(F)(F)C(F)(F)C(F)(F)C(F)(F)F

>  <INCHI_STRING>
InChI=1S/C6HF11O2/c7-2(8,1(18)19)3(9,10)4(11,12)5(13,14)6(15,16)17/h(H,18,19)


>  <MOLECULAR_FORMULA>
C6HF11O2

>  <AVERAGE_MASS>
314.054

>  <MONOISOTOPIC_MASS>
313.980089065

>  <MOL_FILE>
MOL_FILE

$$$$

  -INDIGO-02112615072D

 13 12  0  0  0  0  0  0  0  0999 V2000
    6.3112    2.1037    0.0000 F   0  0  0  0  0  0  0  0  0  0  0  0
    7.8512   -0.5637    0.0000 F   0  0  0  0  0  0  0  0  0  0  0  0
    4.9775    1.3337    0.0000 F   0  0  0  0  0  0  0  0  0  0  0  0
    6.5175   -1.3337    0.0000 F   0  0  0  0  0  0  0  0  0  0  0  0
    3.0800   -1.5400    0.0000 F   0  0  0  0  0  0  0  0  0  0  0  0
    3.6437    0.5637    0.0000 F   0  0  0  0  0  0  0  0  0  0  0  0
    5.1837   -2.1037    0.0000 F   0  0  0  0  0  0  0  0  0  0  0  0
    9.7485    0.7700    0.0000 O   0  0  0  0  0  0  0  0  0  0  0  0
    7.0812    0.7700    0.0000 C   0  0  0  0  0  0  0  0  0  0  0  0
    5.7475    0.0000    0.0000 C   0  0  0  0  0  0  0  0  0  0  0  0
    8.4149    1.5400    0.0000 C   0  0  0  0  0  0  0  0  0  0  0  0
    4.4137   -0.7700    0.0000 C   0  0  0  0  0  0  0  0  0  0  0  0
   11.0824    1.5400    0.0000 C   0  0  0  0  0  0  0  0  0  0  0  0
  1  9  1  0  0  0  0
  2  9  1  0  0  0  0
  3 10  1  0  0  0  0
  4 10  1  0  0  0  0
  5 12  1  0  0  0  0
  6 12  1  0  0  0  0
  7 12  1  0  0  0  0
  8 11  1  0  0  0  0
  8 13  1  0  0  0  0
  9 10  1  0  0  0  0
  9 11  1  0  0  0  0
 10 12  1  0  0  0  0
M  END
>  <INPUT>
DTXSID60591585

>  <FOUND_BY>
DSSTox_Substance_Id

>  <DTXSID>
DTXSID60591585

>  <PREFERRED_NAME>
Methyl 2H,2H-perfluorobutyl ether

>  <CASRN>
376-98-7

>  <INCHIKEY>
ZUBVOEGCTVLBQN-UHFFFAOYSA-N

>  <IUPAC_NAME>
1,1,1,2,2,3,3-Heptafluoro-4-methoxybutane

>  <SMILES>
COCC(F)(F)C(F)(F)C(F)(F)F

>  <INCHI_STRING>
InChI=1S/C5H5F7O/c1-13-2-3(6,7)4(8,9)5(10,11)12/h2H2,1H3

>  <MOLECULAR_FORMULA>
C5H5F7O

>  <AVERAGE_MASS>
214.083

>  <MONOISOTOPIC_MASS>
214.022861922

>  <MOL_FILE>
MOL_FILE

$$$$

  -INDIGO-02112615072D

 24 23  0  0  0  0  0  0  0  0999 V2000
    6.5450   -0.0001    0.0000 F   0  0  0  0  0  0  0  0  0  0  0  0
    5.0050    0.0001    0.0000 C   0  0  0  0  0  0  0  0  0  0  0  0
    5.0050    1.5401    0.0000 F   0  0  0  0  0  0  0  0  0  0  0  0
    5.0048   -1.5401    0.0000 F   0  0  0  0  0  0  0  0  0  0  0  0
    3.4648    0.0001    0.0000 C   0  0  0  0  0  0  0  0  0  0  0  0
    3.4650    1.5401    0.0000 F   0  0  0  0  0  0  0  0  0  0  0  0
    3.4648   -1.5399    0.0000 F   0  0  0  0  0  0  0  0  0  0  0  0
    1.9250   -0.0001    0.0000 C   0  0  0  0  0  0  0  0  0  0  0  0
    1.9250    1.5401    0.0000 F   0  0  0  0  0  0  0  0  0  0  0  0
    1.9250   -1.5401    0.0000 F   0  0  0  0  0  0  0  0  0  0  0  0
    0.3850    0.0001    0.0000 C   0  0  0  0  0  0  0  0  0  0  0  0
    0.3850    1.5401    0.0000 F   0  0  0  0  0  0  0  0  0  0  0  0
    0.3850   -1.5401    0.0000 F   0  0  0  0  0  0  0  0  0  0  0  0
   -1.1552    0.0001    0.0000 C   0  0  0  0  0  0  0  0  0  0  0  0
   -1.1550    1.5401    0.0000 F   0  0  0  0  0  0  0  0  0  0  0  0
   -1.1552   -1.5401    0.0000 F   0  0  0  0  0  0  0  0  0  0  0  0
   -2.6952    0.0001    0.0000 C   0  0  0  0  0  0  0  0  0  0  0  0
   -2.6952    1.5401    0.0000 F   0  0  0  0  0  0  0  0  0  0  0  0
   -2.6952   -1.5399    0.0000 F   0  0  0  0  0  0  0  0  0  0  0  0
   -4.2350   -0.0001    0.0000 C   0  0  0  0  0  0  0  0  0  0  0  0
   -4.2350    1.5401    0.0000 F   0  0  0  0  0  0  0  0  0  0  0  0
   -4.2350   -1.5401    0.0000 F   0  0  0  0  0  0  0  0  0  0  0  0
   -5.7750    0.0001    0.0000 C   0  0  0  0  0  0  0  0  0  0  0  0
   -6.5450   -1.3336    0.0000 O   0  0  0  0  0  0  0  0  0  0  0  0
  1  2  1  0  0  0  0
  2  3  1  0  0  0  0
  2  4  1  0  0  0  0
  2  5  1  0  0  0  0
  5  6  1  0  0  0  0
  5  7  1  0  0  0  0
  5  8  1  0  0  0  0
  8  9  1  0  0  0  0
  8 10  1  0  0  0  0
  8 11  1  0  0  0  0
 11 12  1  0  0  0  0
 11 13  1  0  0  0  0
 11 14  1  0  0  0  0
 14 15  1  0  0  0  0
 14 16  1  0  0  0  0
 14 17  1  0  0  0  0
 17 18  1  0  0  0  0
 17 19  1  0  0  0  0
 17 20  1  0  0  0  0
 20 21  1  0  0  0  0
 20 22  1  0  0  0  0
 20 23  1  0  0  0  0
 23 24  1  0  0  0  0
M  END
>  <INPUT>
DTXSID5059793

>  <FOUND_BY>
DSSTox_Substance_Id

>  <DTXSID>
DTXSID5059793

>  <PREFERRED_NAME>
7:1 Fluorotelomer alcohol

>  <CASRN>
307-30-2

>  <INCHIKEY>
PJDOLCGOTSNFJM-UHFFFAOYSA-N

>  <IUPAC_NAME>
2,2,3,3,4,4,5,5,6,6,7,7,8,8,8-Pentadecafluorooctan-1-ol

>  <SMILES>
OCC(F)(F)C(F)(F)C(F)(F)C(F)(F)C(F)(F)C(F)(F)C(F)(F)F

>  <INCHI_STRING>
InChI=1S/C8H3F15O/c9-2(10,1-24)3(11,12)4(13,14)5(15,16)6(17,18)7(19,20)8(21,22)23/h24H,1H2

>  <MOLECULAR_FORMULA>
C8H3F15O

>  <AVERAGE_MASS>
400.087

>  <MONOISOTOPIC_MASS>
399.994437162

>  <MOL_FILE>
MOL_FILE

$$$$

  -INDIGO-02112615072D

 13 12  0  0  0  0  0  0  0  0999 V2000
    1.5400    0.0000    0.0000 S   0  0  0  0  0  0  0  0  0  0  0  0
    1.5400   -1.5400    0.0000 C   0  0  0  0  0  0  0  0  0  0  0  0
    1.5400   -3.0800    0.0000 F   0  0  0  0  0  0  0  0  0  0  0  0
    3.0800   -1.5400    0.0000 F   0  0  0  0  0  0  0  0  0  0  0  0
    0.0000   -1.5400    0.0000 F   0  0  0  0  0  0  0  0  0  0  0  0
    1.5400    1.5400    0.0000 O   0  0  0  0  0  0  0  0  0  0  0  0
    2.8737    2.3100    0.0000 C   0  0  0  0  0  0  0  0  0  0  0  0
    2.8737    3.8500    0.0000 C   0  0  0  0  0  0  0  0  0  0  0  0
    2.8737    5.3900    0.0000 F   0  0  0  0  0  0  0  0  0  0  0  0
    4.4137    3.8500    0.0000 F   0  0  0  0  0  0  0  0  0  0  0  0
    1.3337    3.8500    0.0000 F   0  0  0  0  0  0  0  0  0  0  0  0
    3.0800    0.0000    0.0000 O   0  0  0  0  0  0  0  0  0  0  0  0
    0.0000    0.0000    0.0000 O   0  0  0  0  0  0  0  0  0  0  0  0
  1  2  1  0  0  0  0
  2  3  1  0  0  0  0
  2  4  1  0  0  0  0
  2  5  1  0  0  0  0
  1  6  1  0  0  0  0
  6  7  1  0  0  0  0
  7  8  1  0  0  0  0
  8  9  1  0  0  0  0
  8 10  1  0  0  0  0
  8 11  1  0  0  0  0
  1 12  2  0  0  0  0
  1 13  2  0  0  0  0
M  END
>  <INPUT>
DTXSID1073365

>  <FOUND_BY>
DSSTox_Substance_Id

>  <DTXSID>
DTXSID1073365

>  <PREFERRED_NAME>
2,2,2-Trifluoroethyl triflate

>  <CASRN>
6226-25-1

>  <INCHIKEY>
RTMMSCJWQYWMNK-UHFFFAOYSA-N

>  <IUPAC_NAME>
2,2,2-Trifluoroethyl trifluoromethanesulfonate

>  <SMILES>
FC(F)(F)COS(=O)(=O)C(F)(F)F

>  <INCHI_STRING>
InChI=1S/C3H2F6O3S/c4-2(5,6)1-12-13(10,11)3(7,8)9/h1H2

>  <MOLECULAR_FORMULA>
C3H2F6O3S

>  <AVERAGE_MASS>
232.1

>  <MONOISOTOPIC_MASS>
231.962884076

>  <MOL_FILE>
MOL_FILE

$$$$

  -INDIGO-02112615072D

 16 15  0  0  0  0  0  0  0  0999 V2000
   -3.8983   -1.6991    0.0000 C   0  0  0  0  0  0  0  0  0  0  0  0
   -3.9602   -0.1603    0.0000 C   0  0  0  0  0  0  0  0  0  0  0  0
   -5.3241    0.5452    0.0000 C   0  0  0  0  0  0  0  0  0  0  0  0
   -2.6567    0.6524    0.0000 C   0  0  0  0  0  0  0  0  0  0  0  0
   -2.7186    2.1912    0.0000 O   0  0  0  0  0  0  0  0  0  0  0  0
   -1.2925   -0.0531    0.0000 O   0  0  0  0  0  0  0  0  0  0  0  0
   -0.0002    0.7694    0.0000 C   0  0  0  0  0  0  0  0  0  0  0  0
    1.3540    0.0531    0.0000 C   0  0  0  0  0  0  0  0  0  0  0  0
    2.0705    1.4072    0.0000 F   0  0  0  0  0  0  0  0  0  0  0  0
    0.6376   -1.3009    0.0000 F   0  0  0  0  0  0  0  0  0  0  0  0
    2.7182   -0.6524    0.0000 C   0  0  0  0  0  0  0  0  0  0  0  0
    2.7800   -2.1912    0.0000 F   0  0  0  0  0  0  0  0  0  0  0  0
    4.0216    0.1602    0.0000 C   0  0  0  0  0  0  0  0  0  0  0  0
    3.1990    1.4525    0.0000 F   0  0  0  0  0  0  0  0  0  0  0  0
    4.8440   -1.1321    0.0000 F   0  0  0  0  0  0  0  0  0  0  0  0
    5.3241    0.9833    0.0000 F   0  0  0  0  0  0  0  0  0  0  0  0
  1  2  1  0  0  0  0
  2  3  2  0  0  0  0
  2  4  1  0  0  0  0
  4  5  2  0  0  0  0
  4  6  1  0  0  0  0
  6  7  1  0  0  0  0
  7  8  1  0  0  0  0
  8  9  1  0  0  0  0
  8 10  1  0  0  0  0
  8 11  1  0  0  0  0
 11 12  1  0  0  0  0
 11 13  1  0  0  0  0
 13 14  1  0  0  0  0
 13 15  1  0  0  0  0
 13 16  1  0  0  0  0
M  END
>  <INPUT>
DTXSID80880403

>  <FOUND_BY>
DSSTox_Substance_Id

>  <DTXSID>
DTXSID80880403

>  <PREFERRED_NAME>
1H,1H,3H-Perfluorobutyl 2-methylacrylate

>  <CASRN>
36405-47-7

>  <INCHIKEY>
DFVPUWGVOPDJTC-UHFFFAOYNA-N

>  <IUPAC_NAME>
2,2,3,4,4,4-Hexafluorobutyl 2-methylprop-2-enoate

>  <SMILES>
CC(=C)C(=O)OCC(F)(F)C(F)C(F)(F)F

>  <INCHI_STRING>
InChI=1/C8H8F6O2/c1-4(2)5(15)16-3-7(10,11)6(9)8(12,13)14/h6H,1,3H2,2H3


>  <MOLECULAR_FORMULA>
C8H8F6O2

>  <AVERAGE_MASS>
250.14

>  <MONOISOTOPIC_MASS>
250.042848476

>  <MOL_FILE>
MOL_FILE

$$$$

  -INDIGO-02112615072D

 18 17  0  0  0  0  0  0  0  0999 V2000
    9.8056    1.4368    0.0000 F   0  0  0  0  0  0  0  0  0  0  0  0
   11.3456   -1.2305    0.0000 F   0  0  0  0  0  0  0  0  0  0  0  0
    8.4717    0.6668    0.0000 F   0  0  0  0  0  0  0  0  0  0  0  0
   10.0117   -2.0005    0.0000 F   0  0  0  0  0  0  0  0  0  0  0  0
   11.1391    2.2070    0.0000 F   0  0  0  0  0  0  0  0  0  0  0  0
   12.6793   -0.4605    0.0000 F   0  0  0  0  0  0  0  0  0  0  0  0
   14.5766    2.4132    0.0000 F   0  0  0  0  0  0  0  0  0  0  0  0
   14.0129    0.3095    0.0000 F   0  0  0  0  0  0  0  0  0  0  0  0
   12.4729    2.9770    0.0000 F   0  0  0  0  0  0  0  0  0  0  0  0
    3.9069   -0.6668    0.0000 O   0  0  0  0  0  0  0  0  0  0  0  0
    5.2407   -2.9770    0.0000 O   0  0  0  0  0  0  0  0  0  0  0  0
   10.5756    0.1032    0.0000 C   0  0  0  0  0  0  0  0  0  0  0  0
    9.2417   -0.6668    0.0000 C   0  0  0  0  0  0  0  0  0  0  0  0
   11.9091    0.8732    0.0000 C   0  0  0  0  0  0  0  0  0  0  0  0
    7.9081   -1.4368    0.0000 C   0  0  0  0  0  0  0  0  0  0  0  0
    6.5744   -0.6668    0.0000 C   0  0  0  0  0  0  0  0  0  0  0  0
   13.2429    1.6432    0.0000 C   0  0  0  0  0  0  0  0  0  0  0  0
    5.2407   -1.4368    0.0000 C   0  0  0  0  0  0  0  0  0  0  0  0
  1 12  1  0  0  0  0
  2 12  1  0  0  0  0
  3 13  1  0  0  0  0
  4 13  1  0  0  0  0
  5 14  1  0  0  0  0
  6 14  1  0  0  0  0
  7 17  1  0  0  0  0
  8 17  1  0  0  0  0
  9 17  1  0  0  0  0
 10 18  1  0  0  0  0
 11 18  2  0  0  0  0
 12 13  1  0  0  0  0
 12 14  1  0  0  0  0
 13 15  1  0  0  0  0
 14 17  1  0  0  0  0
 15 16  1  0  0  0  0
 16 18  1  0  0  0  0
M  END
>  <INPUT>
DTXSID80445177

>  <FOUND_BY>
DSSTox_Substance_Id

>  <DTXSID>
DTXSID80445177

>  <PREFERRED_NAME>
3-(Perfluorobutyl)propanoic acid

>  <CASRN>
80705-13-1

>  <INCHIKEY>
QWHCZVLZUPZGSI-UHFFFAOYSA-N

>  <IUPAC_NAME>
4,4,5,5,6,6,7,7,7-Nonafluoroheptanoic acid

>  <SMILES>
OC(=O)CCC(F)(F)C(F)(F)C(F)(F)C(F)(F)F

>  <INCHI_STRING>
InChI=1S/C7H5F9O2/c8-4(9,2-1-3(17)18)5(10,11)6(12,13)7(14,15)16/h1-2H2,(H,17,18)

>  <MOLECULAR_FORMULA>
C7H5F9O2

>  <AVERAGE_MASS>
292.101

>  <MONOISOTOPIC_MASS>
292.014582868

>  <MOL_FILE>
MOL_FILE

$$$$

  -INDIGO-02112615072D

 21 20  0  0  0  0  0  0  0  0999 V2000
    7.6449    0.9486    0.0000 F   0  0  0  0  0  0  0  0  0  0  0  0
    9.1849   -1.7186    0.0000 F   0  0  0  0  0  0  0  0  0  0  0  0
    6.3112    0.1786    0.0000 F   0  0  0  0  0  0  0  0  0  0  0  0
    7.8512   -2.4886    0.0000 F   0  0  0  0  0  0  0  0  0  0  0  0
    8.9785    1.7186    0.0000 F   0  0  0  0  0  0  0  0  0  0  0  0
   10.5187   -0.9486    0.0000 F   0  0  0  0  0  0  0  0  0  0  0  0
    4.9775   -0.5914    0.0000 F   0  0  0  0  0  0  0  0  0  0  0  0
    6.5175   -3.2586    0.0000 F   0  0  0  0  0  0  0  0  0  0  0  0
   11.8524   -0.1786    0.0000 F   0  0  0  0  0  0  0  0  0  0  0  0
   10.3124    2.4886    0.0000 F   0  0  0  0  0  0  0  0  0  0  0  0
   13.7497    2.6951    0.0000 F   0  0  0  0  0  0  0  0  0  0  0  0
   13.1861    0.5914    0.0000 F   0  0  0  0  0  0  0  0  0  0  0  0
   11.6461    3.2586    0.0000 F   0  0  0  0  0  0  0  0  0  0  0  0
    8.4149   -0.3851    0.0000 C   0  0  0  0  0  0  0  0  0  0  0  0
    7.0812   -1.1551    0.0000 C   0  0  0  0  0  0  0  0  0  0  0  0
    9.7485    0.3851    0.0000 C   0  0  0  0  0  0  0  0  0  0  0  0
    5.7475   -1.9251    0.0000 C   0  0  0  0  0  0  0  0  0  0  0  0
   11.0824    1.1551    0.0000 C   0  0  0  0  0  0  0  0  0  0  0  0
    4.4137   -2.6951    0.0000 C   0  0  0  0  0  0  0  0  0  0  0  0
   12.4161    1.9251    0.0000 C   0  0  0  0  0  0  0  0  0  0  0  0
    3.0800   -1.9251    0.0000 C   0  0  0  0  0  0  0  0  0  0  0  0
  1 14  1  0  0  0  0
  2 14  1  0  0  0  0
  3 15  1  0  0  0  0
  4 15  1  0  0  0  0
  5 16  1  0  0  0  0
  6 16  1  0  0  0  0
  7 17  1  0  0  0  0
  8 17  1  0  0  0  0
  9 18  1  0  0  0  0
 10 18  1  0  0  0  0
 11 20  1  0  0  0  0
 12 20  1  0  0  0  0
 13 20  1  0  0  0  0
 14 15  1  0  0  0  0
 14 16  1  0  0  0  0
 15 17  1  0  0  0  0
 16 18  1  0  0  0  0
 17 19  1  0  0  0  0
 18 20  1  0  0  0  0
 19 21  1  0  0  0  0
M  END
>  <INPUT>
DTXSID30379857

>  <FOUND_BY>
DSSTox_Substance_Id

>  <DTXSID>
DTXSID30379857

>  <PREFERRED_NAME>
(Perfluoro-n-hexyl)ethane

>  <CASRN>
80793-17-5

>  <INCHIKEY>
SKRWRXWNQFQGRU-UHFFFAOYSA-N

>  <IUPAC_NAME>
1,1,1,2,2,3,3,4,4,5,5,6,6-Tridecafluorooctane

>  <SMILES>
CCC(F)(F)C(F)(F)C(F)(F)C(F)(F)C(F)(F)C(F)(F)F

>  <INCHI_STRING>
InChI=1S/C8H5F13/c1-2-3(9,10)4(11,12)5(13,14)6(15,16)7(17,18)8(19,20)21/h2H2,1H3

>  <MOLECULAR_FORMULA>
C8H5F13

>  <AVERAGE_MASS>
348.107

>  <MONOISOTOPIC_MASS>
348.01836628

>  <MOL_FILE>
MOL_FILE

$$$$

  -INDIGO-02112615072D

 34 33  0  0  0  0  0  0  0  0999 V2000
   -8.0850    0.0000    0.0000 C   0  0  0  0  0  0  0  0  0  0  0  0
   -6.5450    0.0000    0.0000 C   0  0  0  0  0  0  0  0  0  0  0  0
   -5.0050    0.0000    0.0000 C   0  0  0  0  0  0  0  0  0  0  0  0
   -3.4650    0.0000    0.0000 C   0  0  0  0  0  0  0  0  0  0  0  0
   -1.9250    0.0000    0.0000 C   0  0  0  0  0  0  0  0  0  0  0  0
   -0.3850    0.0000    0.0000 C   0  0  0  0  0  0  0  0  0  0  0  0
    1.1550    0.0000    0.0000 C   0  0  0  0  0  0  0  0  0  0  0  0
    2.6950    0.0000    0.0000 C   0  0  0  0  0  0  0  0  0  0  0  0
    4.2350    0.0000    0.0000 C   0  0  0  0  0  0  0  0  0  0  0  0
    5.7750    0.0000    0.0000 C   0  0  0  0  0  0  0  0  0  0  0  0
    7.3150    0.0000    0.0000 C   0  0  0  0  0  0  0  0  0  0  0  0
   -8.8550    1.3338    0.0000 O   0  0  0  0  0  0  0  0  0  0  0  0
   -8.8550   -1.3337    0.0000 O   0  0  0  0  0  0  0  0  0  0  0  0
   -6.5450   -1.5400    0.0000 F   0  0  0  0  0  0  0  0  0  0  0  0
   -6.5450    1.5400    0.0000 F   0  0  0  0  0  0  0  0  0  0  0  0
   -5.0050   -1.5400    0.0000 F   0  0  0  0  0  0  0  0  0  0  0  0
   -5.0050    1.5400    0.0000 F   0  0  0  0  0  0  0  0  0  0  0  0
   -3.4650   -1.5400    0.0000 F   0  0  0  0  0  0  0  0  0  0  0  0
   -3.4650    1.5400    0.0000 F   0  0  0  0  0  0  0  0  0  0  0  0
   -1.9250   -1.5400    0.0000 F   0  0  0  0  0  0  0  0  0  0  0  0
   -1.9250    1.5400    0.0000 F   0  0  0  0  0  0  0  0  0  0  0  0
   -0.3850   -1.5400    0.0000 F   0  0  0  0  0  0  0  0  0  0  0  0
   -0.3850    1.5400    0.0000 F   0  0  0  0  0  0  0  0  0  0  0  0
    1.1550   -1.5400    0.0000 F   0  0  0  0  0  0  0  0  0  0  0  0
    1.1550    1.5400    0.0000 F   0  0  0  0  0  0  0  0  0  0  0  0
    2.6950   -1.5400    0.0000 F   0  0  0  0  0  0  0  0  0  0  0  0
    2.6950    1.5400    0.0000 F   0  0  0  0  0  0  0  0  0  0  0  0
    4.2350   -1.5400    0.0000 F   0  0  0  0  0  0  0  0  0  0  0  0
    4.2350    1.5400    0.0000 F   0  0  0  0  0  0  0  0  0  0  0  0
    5.7750   -1.5400    0.0000 F   0  0  0  0  0  0  0  0  0  0  0  0
    5.7750    1.5400    0.0000 F   0  0  0  0  0  0  0  0  0  0  0  0
    7.3150   -1.5400    0.0000 F   0  0  0  0  0  0  0  0  0  0  0  0
    7.3150    1.5400    0.0000 F   0  0  0  0  0  0  0  0  0  0  0  0
    8.8550    0.0000    0.0000 F   0  0  0  0  0  0  0  0  0  0  0  0
  1  2  1  0  0  0  0
  1 13  1  0  0  0  0
  1 12  2  0  0  0  0
  2  3  1  0  0  0  0
  2 14  1  0  0  0  0
  2 15  1  0  0  0  0
  3  4  1  0  0  0  0
  3 16  1  0  0  0  0
  3 17  1  0  0  0  0
  4  5  1  0  0  0  0
  4 18  1  0  0  0  0
  4 19  1  0  0  0  0
  5  6  1  0  0  0  0
  5 20  1  0  0  0  0
  5 21  1  0  0  0  0
  6  7  1  0  0  0  0
  6 22  1  0  0  0  0
  6 23  1  0  0  0  0
  7  8  1  0  0  0  0
  7 24  1  0  0  0  0
  7 25  1  0  0  0  0
  8  9  1  0  0  0  0
  8 26  1  0  0  0  0
  8 27  1  0  0  0  0
  9 10  1  0  0  0  0
  9 28  1  0  0  0  0
  9 29  1  0  0  0  0
 10 11  1  0  0  0  0
 10 30  1  0  0  0  0
 10 31  1  0  0  0  0
 11 32  1  0  0  0  0
 11 33  1  0  0  0  0
 11 34  1  0  0  0  0
M  END
>  <INPUT>
DTXSID8047553

>  <FOUND_BY>
DSSTox_Substance_Id

>  <DTXSID>
DTXSID8047553

>  <PREFERRED_NAME>
Perfluoroundecanoic acid

>  <CASRN>
2058-94-8

>  <INCHIKEY>
SIDINRCMMRKXGQ-UHFFFAOYSA-N

>  <IUPAC_NAME>
Henicosafluoroundecanoic acid

>  <SMILES>
OC(=O)C(F)(F)C(F)(F)C(F)(F)C(F)(F)C(F)(F)C(F)(F)C(F)(F)C(F)(F)C(F)(F)C(F)(F)F

>  <INCHI_STRING>
InChI=1S/C11HF21O2/c12-2(13,1(33)34)3(14,15)4(16,17)5(18,19)6(20,21)7(22,23)8(24,25)9(26,27)10(28,29)11(30,31)32/h(H,33,34)


>  <MOLECULAR_FORMULA>
C11HF21O2

>  <AVERAGE_MASS>
564.093

>  <MONOISOTOPIC_MASS>
563.964120695

>  <MOL_FILE>
MOL_FILE

$$$$

  -INDIGO-02112615072D

 21 20  0  0  0  0  0  0  0  0999 V2000
    7.6484    6.8608    0.0000 O   0  0  0  0  0  0  0  0  0  0  0  0
    8.4184    5.5271    0.0000 C   0  0  0  0  0  0  0  0  0  0  0  0
    7.6484    4.1934    0.0000 O   0  0  0  0  0  0  0  0  0  0  0  0
    6.1085    4.1935    0.0000 C   0  0  0  0  0  0  0  0  0  0  0  0
    5.3384    2.8598    0.0000 C   0  0  0  0  0  0  0  0  0  0  0  0
    3.7984    2.8598    0.0000 C   0  0  0  0  0  0  0  0  0  0  0  0
    3.7983    1.3199    0.0000 F   0  0  0  0  0  0  0  0  0  0  0  0
    3.7984    4.3998    0.0000 F   0  0  0  0  0  0  0  0  0  0  0  0
    2.2585    2.8598    0.0000 C   0  0  0  0  0  0  0  0  0  0  0  0
    2.2584    1.3199    0.0000 F   0  0  0  0  0  0  0  0  0  0  0  0
    2.2585    4.3999    0.0000 F   0  0  0  0  0  0  0  0  0  0  0  0
    0.7185    2.8598    0.0000 C   0  0  0  0  0  0  0  0  0  0  0  0
    0.7184    1.3199    0.0000 F   0  0  0  0  0  0  0  0  0  0  0  0
    0.7184    4.3998    0.0000 F   0  0  0  0  0  0  0  0  0  0  0  0
   -0.8216    2.8598    0.0000 C   0  0  0  0  0  0  0  0  0  0  0  0
   -2.3616    2.8597    0.0000 F   0  0  0  0  0  0  0  0  0  0  0  0
   -0.8217    1.3199    0.0000 F   0  0  0  0  0  0  0  0  0  0  0  0
   -0.8216    4.3998    0.0000 F   0  0  0  0  0  0  0  0  0  0  0  0
    9.9585    5.5272    0.0000 C   0  0  0  0  0  0  0  0  0  0  0  0
   10.7285    6.8609    0.0000 C   0  0  0  0  0  0  0  0  0  0  0  0
   10.7285    4.1935    0.0000 C   0  0  0  0  0  0  0  0  0  0  0  0
  1  2  2  0  0  0  0
  2  3  1  0  0  0  0
  3  4  1  0  0  0  0
  4  5  1  0  0  0  0
  5  6  1  0  0  0  0
  6  7  1  0  0  0  0
  6  8  1  0  0  0  0
  6  9  1  0  0  0  0
  9 10  1  0  0  0  0
  9 11  1  0  0  0  0
  9 12  1  0  0  0  0
 12 13  1  0  0  0  0
 12 14  1  0  0  0  0
 12 15  1  0  0  0  0
 15 16  1  0  0  0  0
 15 17  1  0  0  0  0
 15 18  1  0  0  0  0
  2 19  1  0  0  0  0
 19 20  2  0  0  0  0
 19 21  1  0  0  0  0
M  END
>  <INPUT>
DTXSID8061979

>  <FOUND_BY>
DSSTox_Substance_Id

>  <DTXSID>
DTXSID8061979

>  <PREFERRED_NAME>
1H,1H,2H,2H-Perfluorohexyl methacrylate

>  <CASRN>
1799-84-4

>  <INCHIKEY>
TYNRPOFACABVSI-UHFFFAOYSA-N

>  <IUPAC_NAME>
3,3,4,4,5,5,6,6,6-Nonafluorohexyl 2-methylprop-2-enoate

>  <SMILES>
CC(=C)C(=O)OCCC(F)(F)C(F)(F)C(F)(F)C(F)(F)F

>  <INCHI_STRING>
InChI=1S/C10H9F9O2/c1-5(2)6(20)21-4-3-7(11,12)8(13,14)9(15,16)10(17,18)19/h1,3-4H2,2H3


>  <MOLECULAR_FORMULA>
C10H9F9O2

>  <AVERAGE_MASS>
332.166

>  <MONOISOTOPIC_MASS>
332.045882997

>  <MOL_FILE>
MOL_FILE

$$$$

  -INDIGO-02112615072D

 13 12  0  0  0  0  0  0  0  0999 V2000
   11.0824    1.4969    0.0000 F   0  0  0  0  0  0  0  0  0  0  0  0
   10.5187   -0.6069    0.0000 F   0  0  0  0  0  0  0  0  0  0  0  0
    8.9785    2.0606    0.0000 F   0  0  0  0  0  0  0  0  0  0  0  0
    3.0800    1.4969    0.0000 F   0  0  0  0  0  0  0  0  0  0  0  0
    3.6437   -0.6069    0.0000 F   0  0  0  0  0  0  0  0  0  0  0  0
    5.1837    2.0606    0.0000 F   0  0  0  0  0  0  0  0  0  0  0  0
    8.4149   -1.5831    0.0000 O   0  0  0  0  0  0  0  0  0  0  0  0
    5.7475   -1.5831    0.0000 O   0  0  0  0  0  0  0  0  0  0  0  0
    8.4149   -0.0431    0.0000 C   0  0  0  0  0  0  0  0  0  0  0  0
    7.0812    0.7269    0.0000 C   0  0  0  0  0  0  0  0  0  0  0  0
    5.7475   -0.0431    0.0000 C   0  0  0  0  0  0  0  0  0  0  0  0
    9.7485    0.7269    0.0000 C   0  0  0  0  0  0  0  0  0  0  0  0
    4.4137    0.7269    0.0000 C   0  0  0  0  0  0  0  0  0  0  0  0
  1 12  1  0  0  0  0
  2 12  1  0  0  0  0
  3 12  1  0  0  0  0
  4 13  1  0  0  0  0
  5 13  1  0  0  0  0
  6 13  1  0  0  0  0
  7  9  1  0  0  0  0
  8 11  2  0  0  0  0
  9 10  2  3  0  0  0
  9 12  1  0  0  0  0
 10 11  1  0  0  0  0
 11 13  1  0  0  0  0
M  END
>  <INPUT>
DTXSID90275806

>  <FOUND_BY>
DSSTox_Substance_Id

>  <DTXSID>
DTXSID90275806

>  <PREFERRED_NAME>
3H-Perfluoro-4-hydroxy-3-penten-2-one

>  <CASRN>
1694-30-0

>  <INCHIKEY>
ZUSKFDORJCVUSD-UHFFFAOYSA-N

>  <IUPAC_NAME>
1,1,1,5,5,5-Hexafluoro-4-hydroxypent-3-en-2-one

>  <SMILES>
OC(=CC(=O)C(F)(F)F)C(F)(F)F

>  <INCHI_STRING>
InChI=1S/C5H2F6O2/c6-4(7,8)2(12)1-3(13)5(9,10)11/h1,12H

>  <MOLECULAR_FORMULA>
C5H2F6O2

>  <AVERAGE_MASS>
208.059

>  <MONOISOTOPIC_MASS>
207.995898282

>  <MOL_FILE>
MOL_FILE

$$$$

  -INDIGO-02112615072D

 13 12  0  0  0  0  0  0  0  0999 V2000
    8.4149    1.8219    0.0000 F   0  0  0  0  0  0  0  0  0  0  0  0
    6.3112    0.8454    0.0000 F   0  0  0  0  0  0  0  0  0  0  0  0
    7.8512   -1.8219    0.0000 F   0  0  0  0  0  0  0  0  0  0  0  0
   11.0824   -1.2581    0.0000 F   0  0  0  0  0  0  0  0  0  0  0  0
   10.5187    0.8454    0.0000 F   0  0  0  0  0  0  0  0  0  0  0  0
    8.9785   -1.8219    0.0000 F   0  0  0  0  0  0  0  0  0  0  0  0
    3.0800   -1.2581    0.0000 F   0  0  0  0  0  0  0  0  0  0  0  0
    4.4137    1.0519    0.0000 F   0  0  0  0  0  0  0  0  0  0  0  0
    5.7475   -1.2581    0.0000 O   0  0  0  0  0  0  0  0  0  0  0  0
    8.4149    0.2819    0.0000 C   0  0  0  0  0  0  0  0  0  0  0  0
    7.0812   -0.4881    0.0000 C   0  0  0  0  0  0  0  0  0  0  0  0
    9.7485   -0.4881    0.0000 C   0  0  0  0  0  0  0  0  0  0  0  0
    4.4137   -0.4881    0.0000 C   0  0  0  0  0  0  0  0  0  0  0  0
  1 10  1  0  0  0  0
  2 11  1  0  0  0  0
  3 11  1  0  0  0  0
  4 12  1  0  0  0  0
  5 12  1  0  0  0  0
  6 12  1  0  0  0  0
  7 13  1  0  0  0  0
  8 13  1  0  0  0  0
  9 11  1  0  0  0  0
  9 13  1  0  0  0  0
 10 11  1  0  0  0  0
 10 12  1  0  0  0  0
M  END
>  <INPUT>
DTXSID30380842

>  <FOUND_BY>
DSSTox_Substance_Id

>  <DTXSID>
DTXSID30380842

>  <PREFERRED_NAME>
Difluoromethyl 2H-perfluoropropyl ether

>  <CASRN>
56860-85-6

>  <INCHIKEY>
WSIIYENBWBHASS-UHFFFAOYNA-N

>  <IUPAC_NAME>
1-(Difluoromethoxy)-1,1,2,3,3,3-hexafluoropropane

>  <SMILES>
FC(F)OC(F)(F)C(F)C(F)(F)F

>  <INCHI_STRING>
InChI=1S/C4H2F8O/c5-1(3(8,9)10)4(11,12)13-2(6)7/h1-2H

>  <MOLECULAR_FORMULA>
C4H2F8O

>  <AVERAGE_MASS>
218.046

>  <MONOISOTOPIC_MASS>
217.997789988

>  <MOL_FILE>
MOL_FILE

$$$$

  -INDIGO-02112615072D

 10  9  0  0  0  0  0  0  0  0999 V2000
    1.5400    0.0000    0.0000 C   0  0  0  0  0  0  0  0  0  0  0  0
    1.5400   -1.5400    0.0000 C   0  0  0  0  0  0  0  0  0  0  0  0
    1.5400   -3.0800    0.0000 C   0  0  0  0  0  0  0  0  0  0  0  0
    0.2063   -3.8500    0.0000 C   0  0  0  0  0  0  0  0  0  0  0  0
    0.2063   -5.3900    0.0000 I   0  0  0  0  0  0  0  0  0  0  0  0
    3.0800   -1.5400    0.0000 F   0  0  0  0  0  0  0  0  0  0  0  0
    0.0000   -1.5400    0.0000 F   0  0  0  0  0  0  0  0  0  0  0  0
    1.5400    1.5400    0.0000 F   0  0  0  0  0  0  0  0  0  0  0  0
    3.0800    0.0000    0.0000 F   0  0  0  0  0  0  0  0  0  0  0  0
    0.0000    0.0000    0.0000 F   0  0  0  0  0  0  0  0  0  0  0  0
  1  2  1  0  0  0  0
  2  3  1  0  0  0  0
  3  4  1  0  0  0  0
  4  5  1  0  0  0  0
  2  6  1  0  0  0  0
  2  7  1  0  0  0  0
  1  8  1  0  0  0  0
  1  9  1  0  0  0  0
  1 10  1  0  0  0  0
M  END
>  <INPUT>
DTXSID8068250

>  <FOUND_BY>
DSSTox_Substance_Id

>  <DTXSID>
DTXSID8068250

>  <PREFERRED_NAME>
2:2 Fluorotelomer iodide

>  <CASRN>
40723-80-6

>  <INCHIKEY>
PPXVPFPTMXFUDE-UHFFFAOYSA-N

>  <IUPAC_NAME>
1,1,1,2,2-Pentafluoro-4-iodobutane

>  <SMILES>
FC(F)(F)C(F)(F)CCI

>  <INCHI_STRING>
InChI=1S/C4H4F5I/c5-3(6,1-2-10)4(7,8)9/h1-2H2

>  <MOLECULAR_FORMULA>
C4H4F5I

>  <AVERAGE_MASS>
273.972

>  <MONOISOTOPIC_MASS>
273.92779

>  <MOL_FILE>
MOL_FILE

$$$$

  -INDIGO-02112615072D

 22 21  0  0  0  0  0  0  0  0999 V2000
    1.5400    0.0000    0.0000 C   0  0  0  0  0  0  0  0  0  0  0  0
    1.5400   -1.5400    0.0000 C   0  0  0  0  0  0  0  0  0  0  0  0
    0.0000   -1.5400    0.0000 F   0  0  0  0  0  0  0  0  0  0  0  0
    1.5400   -3.0800    0.0000 C   0  0  0  0  0  0  0  0  0  0  0  0
    1.5400   -4.6200    0.0000 F   0  0  0  0  0  0  0  0  0  0  0  0
    3.0800   -3.0800    0.0000 F   0  0  0  0  0  0  0  0  0  0  0  0
    0.0000   -3.0800    0.0000 F   0  0  0  0  0  0  0  0  0  0  0  0
    3.0800   -1.5400    0.0000 C   0  0  0  0  0  0  0  0  0  0  0  0
    3.8500   -0.2063    0.0000 C   0  0  0  0  0  0  0  0  0  0  0  0
    4.6200    1.1274    0.0000 C   0  0  0  0  0  0  0  0  0  0  0  0
    5.3900    2.4610    0.0000 F   0  0  0  0  0  0  0  0  0  0  0  0
    5.9537    0.3574    0.0000 F   0  0  0  0  0  0  0  0  0  0  0  0
    3.2863    1.8974    0.0000 F   0  0  0  0  0  0  0  0  0  0  0  0
    5.1837   -0.9763    0.0000 C   0  0  0  0  0  0  0  0  0  0  0  0
    6.5174   -1.7463    0.0000 F   0  0  0  0  0  0  0  0  0  0  0  0
    6.5905   -0.3500    0.0000 F   0  0  0  0  0  0  0  0  0  0  0  0
    4.4137   -2.3100    0.0000 F   0  0  0  0  0  0  0  0  0  0  0  0
    2.8195    0.9381    0.0000 F   0  0  0  0  0  0  0  0  0  0  0  0
    3.8500   -2.8737    0.0000 O   0  0  0  0  0  0  0  0  0  0  0  0
    1.5400    1.5400    0.0000 F   0  0  0  0  0  0  0  0  0  0  0  0
    3.0800    0.0000    0.0000 F   0  0  0  0  0  0  0  0  0  0  0  0
    0.0000    0.0000    0.0000 F   0  0  0  0  0  0  0  0  0  0  0  0
  1  2  1  0  0  0  0
  2  3  1  0  0  0  0
  2  4  1  0  0  0  0
  4  5  1  0  0  0  0
  4  6  1  0  0  0  0
  4  7  1  0  0  0  0
  2  8  1  0  0  0  0
  8  9  1  0  0  0  0
  9 10  1  0  0  0  0
 10 11  1  0  0  0  0
 10 12  1  0  0  0  0
 10 13  1  0  0  0  0
  9 14  1  0  0  0  0
 14 15  1  0  0  0  0
 14 16  1  0  0  0  0
 14 17  1  0  0  0  0
  9 18  1  0  0  0  0
  8 19  2  0  0  0  0
  1 20  1  0  0  0  0
  1 21  1  0  0  0  0
  1 22  1  0  0  0  0
M  END
>  <INPUT>
DTXSID4074855

>  <FOUND_BY>
DSSTox_Substance_Id

>  <DTXSID>
DTXSID4074855

>  <PREFERRED_NAME>
Perfluorobis(isopropyl) ketone

>  <CASRN>
813-44-5

>  <INCHIKEY>
GRVMOMUDALILLH-UHFFFAOYSA-N

>  <IUPAC_NAME>
1,1,1,2,4,5,5,5-Octafluoro-2,4-bis(trifluoromethyl)pentan-3-one

>  <SMILES>
FC(F)(F)C(F)(C(=O)C(F)(C(F)(F)F)C(F)(F)F)C(F)(F)F

>  <INCHI_STRING>
InChI=1S/C7F14O/c8-2(4(10,11)12,5(13,14)15)1(22)3(9,6(16,17)18)7(19,20)21


>  <MOLECULAR_FORMULA>
C7F14O

>  <AVERAGE_MASS>
366.054

>  <MONOISOTOPIC_MASS>
365.972558902

>  <MOL_FILE>
MOL_FILE

$$$$

  -INDIGO-02112615072D

 25 25  0  0  0  0  0  0  0  0999 V2000
    3.1475    3.2568    0.0000 F   0  0  0  0  0  0  0  0  0  0  0  0
    3.1475    0.1768    0.0000 F   0  0  0  0  0  0  0  0  0  0  0  0
    1.6075    3.2568    0.0000 F   0  0  0  0  0  0  0  0  0  0  0  0
    1.6075    0.1768    0.0000 F   0  0  0  0  0  0  0  0  0  0  0  0
    0.0675    3.2568    0.0000 F   0  0  0  0  0  0  0  0  0  0  0  0
    0.0675    0.1768    0.0000 F   0  0  0  0  0  0  0  0  0  0  0  0
   -3.0125    1.7168    0.0000 F   0  0  0  0  0  0  0  0  0  0  0  0
   -1.4725    3.2568    0.0000 F   0  0  0  0  0  0  0  0  0  0  0  0
   -1.4725    0.1768    0.0000 F   0  0  0  0  0  0  0  0  0  0  0  0
    7.7675   -0.9505    0.0000 O   0  0  0  0  0  0  0  0  0  0  0  0
   14.6975   -2.2843    0.0000 O   0  0  0  0  0  0  0  0  0  0  0  0
    3.1475    1.7168    0.0000 C   0  0  0  0  0  0  0  0  0  0  0  0
    4.6875    1.7168    0.0000 C   0  0  0  0  0  0  0  0  0  0  0  0
    1.6075    1.7168    0.0000 C   0  0  0  0  0  0  0  0  0  0  0  0
    5.4575    0.3830    0.0000 C   0  0  0  0  0  0  0  0  0  0  0  0
    0.0675    1.7168    0.0000 C   0  0  0  0  0  0  0  0  0  0  0  0
    6.9975    0.3830    0.0000 C   0  0  0  0  0  0  0  0  0  0  0  0
   -1.4725    1.7168    0.0000 C   0  0  0  0  0  0  0  0  0  0  0  0
    9.3075   -0.9505    0.0000 C   0  0  0  0  0  0  0  0  0  0  0  0
   10.0775   -2.2843    0.0000 C   0  0  0  0  0  0  0  0  0  0  0  0
   10.0775    0.3830    0.0000 C   0  0  0  0  0  0  0  0  0  0  0  0
   12.3875   -0.9505    0.0000 C   0  0  0  0  0  0  0  0  0  0  0  0
   11.6175   -2.2843    0.0000 C   0  0  0  0  0  0  0  0  0  0  0  0
   11.6175    0.3830    0.0000 C   0  0  0  0  0  0  0  0  0  0  0  0
   13.9275   -0.9505    0.0000 C   0  0  0  0  0  0  0  0  0  0  0  0
  1 12  1  0  0  0  0
  2 12  1  0  0  0  0
  3 14  1  0  0  0  0
  4 14  1  0  0  0  0
  5 16  1  0  0  0  0
  6 16  1  0  0  0  0
  7 18  1  0  0  0  0
  8 18  1  0  0  0  0
  9 18  1  0  0  0  0
 10 17  1  0  0  0  0
 10 19  1  0  0  0  0
 11 25  1  0  0  0  0
 12 13  1  0  0  0  0
 12 14  1  0  0  0  0
 13 15  1  0  0  0  0
 14 16  1  0  0  0  0
 15 17  1  0  0  0  0
 16 18  1  0  0  0  0
 19 20  2  0  0  0  0
 19 21  1  0  0  0  0
 20 23  1  0  0  0  0
 21 24  2  0  0  0  0
 22 23  2  0  0  0  0
 22 24  1  0  0  0  0
 22 25  1  0  0  0  0
M  END
>  <INPUT>
DTXSID40583342

>  <FOUND_BY>
DSSTox_Substance_Id

>  <DTXSID>
DTXSID40583342

>  <PREFERRED_NAME>
4-[3-(Perfluorobutyl)-1-propyloxy]benzyl alcohol

>  <CASRN>
892154-51-7

>  <INCHIKEY>
FVFREHJGVAWXEQ-UHFFFAOYSA-N

>  <IUPAC_NAME>
{4-[(4,4,5,5,6,6,7,7,7-Nonafluoroheptyl)oxy]phenyl}methanol

>  <SMILES>
OCC1=CC=C(OCCCC(F)(F)C(F)(F)C(F)(F)C(F)(F)F)C=C1

>  <INCHI_STRING>
InChI=1S/C14H13F9O2/c15-11(16,12(17,18)13(19,20)14(21,22)23)6-1-7-25-10-4-2-9(8-24)3-5-10/h2-5,24H,1,6-8H2


>  <MOLECULAR_FORMULA>
C14H13F9O2

>  <AVERAGE_MASS>
384.242

>  <MONOISOTOPIC_MASS>
384.077183126

>  <MOL_FILE>
MOL_FILE

$$$$

  -INDIGO-02112615072D

 23 22  0  0  0  0  0  0  0  0999 V2000
   -4.6680   -0.3851    0.0000 I   0  0  0  0  0  0  0  0  0  0  0  0
    0.1032   -2.4886    0.0000 F   0  0  0  0  0  0  0  0  0  0  0  0
   -1.4368    0.1786    0.0000 F   0  0  0  0  0  0  0  0  0  0  0  0
    1.4370   -1.7186    0.0000 F   0  0  0  0  0  0  0  0  0  0  0  0
   -0.1032    0.9486    0.0000 F   0  0  0  0  0  0  0  0  0  0  0  0
   -1.2305   -3.2586    0.0000 F   0  0  0  0  0  0  0  0  0  0  0  0
   -2.7705   -0.5914    0.0000 F   0  0  0  0  0  0  0  0  0  0  0  0
    2.7707   -0.9486    0.0000 F   0  0  0  0  0  0  0  0  0  0  0  0
    1.2307    1.7186    0.0000 F   0  0  0  0  0  0  0  0  0  0  0  0
    4.1044   -0.1786    0.0000 F   0  0  0  0  0  0  0  0  0  0  0  0
    2.5644    2.4886    0.0000 F   0  0  0  0  0  0  0  0  0  0  0  0
    3.8980    3.2586    0.0000 F   0  0  0  0  0  0  0  0  0  0  0  0
    5.4380    0.5914    0.0000 F   0  0  0  0  0  0  0  0  0  0  0  0
    6.0017    2.6951    0.0000 F   0  0  0  0  0  0  0  0  0  0  0  0
   -0.6668   -1.1551    0.0000 C   0  0  0  0  0  0  0  0  0  0  0  0
    0.6668   -0.3851    0.0000 C   0  0  0  0  0  0  0  0  0  0  0  0
   -2.0005   -1.9251    0.0000 C   0  0  0  0  0  0  0  0  0  0  0  0
    2.0007    0.3851    0.0000 C   0  0  0  0  0  0  0  0  0  0  0  0
   -3.3341   -2.6951    0.0000 C   0  0  0  0  0  0  0  0  0  0  0  0
    3.3344    1.1551    0.0000 C   0  0  0  0  0  0  0  0  0  0  0  0
   -4.6680   -1.9251    0.0000 C   0  0  0  0  0  0  0  0  0  0  0  0
    4.6680    1.9251    0.0000 C   0  0  0  0  0  0  0  0  0  0  0  0
   -6.0017   -2.6951    0.0000 C   0  0  0  0  0  0  0  0  0  0  0  0
  1 21  1  0  0  0  0
  2 15  1  0  0  0  0
  3 15  1  0  0  0  0
  4 16  1  0  0  0  0
  5 16  1  0  0  0  0
  6 17  1  0  0  0  0
  7 17  1  0  0  0  0
  8 18  1  0  0  0  0
  9 18  1  0  0  0  0
 10 20  1  0  0  0  0
 11 20  1  0  0  0  0
 12 22  1  0  0  0  0
 13 22  1  0  0  0  0
 14 22  1  0  0  0  0
 15 16  1  0  0  0  0
 15 17  1  0  0  0  0
 16 18  1  0  0  0  0
 17 19  1  0  0  0  0
 18 20  1  0  0  0  0
 19 21  1  0  0  0  0
 20 22  1  0  0  0  0
 21 23  1  0  0  0  0
M  END
>  <INPUT>
DTXSID70880412

>  <FOUND_BY>
DSSTox_Substance_Id

>  <DTXSID>
DTXSID70880412

>  <PREFERRED_NAME>
1-(Perfluorohexyl)-2-iodopropane

>  <CASRN>
38550-34-4

>  <INCHIKEY>
REPFTMOJFHVIBT-UHFFFAOYNA-N

>  <IUPAC_NAME>
1,1,1,2,2,3,3,4,4,5,5,6,6-Tridecafluoro-8-iodononane

>  <SMILES>
CC(I)CC(F)(F)C(F)(F)C(F)(F)C(F)(F)C(F)(F)C(F)(F)F

>  <INCHI_STRING>
InChI=1S/C9H6F13I/c1-3(23)2-4(10,11)5(12,13)6(14,15)7(16,17)8(18,19)9(20,21)22/h3H,2H2,1H3

>  <MOLECULAR_FORMULA>
C9H6F13I

>  <AVERAGE_MASS>
488.031

>  <MONOISOTOPIC_MASS>
487.93066

>  <MOL_FILE>
MOL_FILE

$$$$

  -INDIGO-02112615072D

 12 11  0  0  0  0  0  0  0  0999 V2000
   -2.2701    1.9775    0.0000 C   0  0  0  0  0  0  0  0  0  0  0  0
   -1.5001    0.6439    0.0000 O   0  0  0  0  0  0  0  0  0  0  0  0
    1.5799    0.6439    0.0000 C   0  0  0  0  0  0  0  0  0  0  0  0
    2.3499   -0.6898    0.0000 C   0  0  0  0  0  0  0  0  0  0  0  0
    2.3499    1.9775    0.0000 F   0  0  0  0  0  0  0  0  0  0  0  0
    3.1199   -2.0235    0.0000 F   0  0  0  0  0  0  0  0  0  0  0  0
    3.6836    0.0802    0.0000 F   0  0  0  0  0  0  0  0  0  0  0  0
    1.0163   -1.4598    0.0000 F   0  0  0  0  0  0  0  0  0  0  0  0
    0.0399    0.6439    0.0000 C   0  0  0  0  0  0  0  0  0  0  0  0
    0.0399    2.1839    0.0000 F   0  0  0  0  0  0  0  0  0  0  0  0
    0.0399   -0.8961    0.0000 F   0  0  0  0  0  0  0  0  0  0  0  0
   -3.8101    1.9775    0.0000 C   0  0  0  0  0  0  0  0  0  0  0  0
  1  2  1  0  0  0  0
  2  9  1  0  0  0  0
  3  4  1  0  0  0  0
  3  5  1  0  0  0  0
  3  9  1  0  0  0  0
  4  6  1  0  0  0  0
  4  7  1  0  0  0  0
  4  8  1  0  0  0  0
  9 10  1  0  0  0  0
  9 11  1  0  0  0  0
  1 12  1  0  0  0  0
M  END
>  <INPUT>
DTXSID20695972

>  <FOUND_BY>
DSSTox_Substance_Id

>  <DTXSID>
DTXSID20695972

>  <PREFERRED_NAME>
Ethyl 2H-perfluoropropyl ether

>  <CASRN>
380-34-7

>  <INCHIKEY>
DMECHFLLAQSVAD-UHFFFAOYNA-N

>  <IUPAC_NAME>
1-Ethoxy-1,1,2,3,3,3-hexafluoropropane

>  <SMILES>
CCOC(F)(F)C(F)C(F)(F)F

>  <INCHI_STRING>
InChI=1S/C5H6F6O/c1-2-12-5(10,11)3(6)4(7,8)9/h3H,2H2,1H3

>  <MOLECULAR_FORMULA>
C5H6F6O

>  <AVERAGE_MASS>
196.092

>  <MONOISOTOPIC_MASS>
196.032283791

>  <MOL_FILE>
MOL_FILE

$$$$

  -INDIGO-02112615072D

 20 19  0  0  0  0  0  0  0  0999 V2000
   -0.7700   -0.2063    0.0000 O   0  0  0  0  0  0  0  0  0  0  0  0
    0.0000   -1.5400    0.0000 C   0  0  0  0  0  0  0  0  0  0  0  0
   -0.7700   -2.8737    0.0000 F   0  0  0  0  0  0  0  0  0  0  0  0
    1.5400   -1.5400    0.0000 C   0  0  0  0  0  0  0  0  0  0  0  0
    1.5400   -3.0800    0.0000 F   0  0  0  0  0  0  0  0  0  0  0  0
    3.0800   -1.5400    0.0000 O   0  0  0  0  0  0  0  0  0  0  0  0
    3.8500   -2.8737    0.0000 C   0  0  0  0  0  0  0  0  0  0  0  0
    2.5163   -3.6437    0.0000 F   0  0  0  0  0  0  0  0  0  0  0  0
    5.1837   -2.1037    0.0000 F   0  0  0  0  0  0  0  0  0  0  0  0
    4.6200   -4.2074    0.0000 C   0  0  0  0  0  0  0  0  0  0  0  0
    3.2863   -4.9774    0.0000 F   0  0  0  0  0  0  0  0  0  0  0  0
    5.9537   -3.4374    0.0000 F   0  0  0  0  0  0  0  0  0  0  0  0
    5.3900   -5.5410    0.0000 C   0  0  0  0  0  0  0  0  0  0  0  0
    6.1600   -6.8747    0.0000 F   0  0  0  0  0  0  0  0  0  0  0  0
    4.0563   -6.3110    0.0000 F   0  0  0  0  0  0  0  0  0  0  0  0
    6.7237   -4.7710    0.0000 F   0  0  0  0  0  0  0  0  0  0  0  0
    1.5400    0.0000    0.0000 C   0  0  0  0  0  0  0  0  0  0  0  0
    1.5400    1.5400    0.0000 F   0  0  0  0  0  0  0  0  0  0  0  0
    3.0800    0.0000    0.0000 F   0  0  0  0  0  0  0  0  0  0  0  0
    0.0000    0.0000    0.0000 F   0  0  0  0  0  0  0  0  0  0  0  0
  1  2  2  0  0  0  0
  2  3  1  0  0  0  0
  2  4  1  0  0  0  0
  4  5  1  0  0  0  0
  4  6  1  0  0  0  0
  6  7  1  0  0  0  0
  7  8  1  0  0  0  0
  7  9  1  0  0  0  0
  7 10  1  0  0  0  0
 10 11  1  0  0  0  0
 10 12  1  0  0  0  0
 10 13  1  0  0  0  0
 13 14  1  0  0  0  0
 13 15  1  0  0  0  0
 13 16  1  0  0  0  0
  4 17  1  0  0  0  0
 17 18  1  0  0  0  0
 17 19  1  0  0  0  0
 17 20  1  0  0  0  0
M  END
>  <INPUT>
DTXSID60862823

>  <FOUND_BY>
DSSTox_Substance_Id

>  <DTXSID>
DTXSID60862823

>  <PREFERRED_NAME>
Perfluoro(2-methyl-3-oxahexanoyl) fluoride

>  <CASRN>
2062-98-8

>  <INCHIKEY>
BCLQALQSEBVVAD-UHFFFAOYNA-N

>  <IUPAC_NAME>
2,3,3,3-Tetrafluoro-2-(heptafluoropropoxy)propanoyl fluoride

>  <SMILES>
FC(=O)C(F)(OC(F)(F)C(F)(F)C(F)(F)F)C(F)(F)F

>  <INCHI_STRING>
InChI=1/C6F12O2/c7-1(19)2(8,4(11,12)13)20-6(17,18)3(9,10)5(14,15)16


>  <MOLECULAR_FORMULA>
C6F12O2

>  <AVERAGE_MASS>
332.045

>  <MONOISOTOPIC_MASS>
331.970667196

>  <MOL_FILE>
MOL_FILE

$$$$

  -INDIGO-02112615072D

 32 31  0  0  0  0  0  0  0  0999 V2000
   -6.9300    0.0000    0.0000 C   0  0  0  0  0  0  0  0  0  0  0  0
   -5.3900    0.0000    0.0000 C   0  0  0  0  0  0  0  0  0  0  0  0
   -3.8500    0.0000    0.0000 C   0  0  0  0  0  0  0  0  0  0  0  0
   -2.3100    0.0000    0.0000 C   0  0  0  0  0  0  0  0  0  0  0  0
   -0.7700    0.0000    0.0000 C   0  0  0  0  0  0  0  0  0  0  0  0
   -8.4700    0.0000    0.0000 F   0  0  0  0  0  0  0  0  0  0  0  0
    0.7700    0.0000    0.0000 C   0  0  0  0  0  0  0  0  0  0  0  0
   -6.9300    1.5400    0.0000 F   0  0  0  0  0  0  0  0  0  0  0  0
   -6.9300   -1.5400    0.0000 F   0  0  0  0  0  0  0  0  0  0  0  0
   -5.3900   -1.5400    0.0000 F   0  0  0  0  0  0  0  0  0  0  0  0
   -5.3900    1.5400    0.0000 F   0  0  0  0  0  0  0  0  0  0  0  0
   -3.8500    1.5400    0.0000 F   0  0  0  0  0  0  0  0  0  0  0  0
   -3.8500   -1.5400    0.0000 F   0  0  0  0  0  0  0  0  0  0  0  0
   -2.3100   -1.5400    0.0000 F   0  0  0  0  0  0  0  0  0  0  0  0
   -2.3100    1.5400    0.0000 F   0  0  0  0  0  0  0  0  0  0  0  0
   -0.7700    1.5400    0.0000 F   0  0  0  0  0  0  0  0  0  0  0  0
   -0.7700   -1.5400    0.0000 F   0  0  0  0  0  0  0  0  0  0  0  0
    2.3100    0.0000    0.0000 C   0  0  0  0  0  0  0  0  0  0  0  0
    0.7700   -1.5400    0.0000 F   0  0  0  0  0  0  0  0  0  0  0  0
    0.7700    1.5400    0.0000 F   0  0  0  0  0  0  0  0  0  0  0  0
    3.8500    0.0000    0.0000 C   0  0  0  0  0  0  0  0  0  0  0  0
    5.3900    0.0000    0.0000 C   0  0  0  0  0  0  0  0  0  0  0  0
    6.9300    0.0000    0.0000 C   0  0  0  0  0  0  0  0  0  0  0  0
    2.3100    1.5400    0.0000 F   0  0  0  0  0  0  0  0  0  0  0  0
    2.3100   -1.5400    0.0000 F   0  0  0  0  0  0  0  0  0  0  0  0
    3.8500   -1.5400    0.0000 F   0  0  0  0  0  0  0  0  0  0  0  0
    3.8500    1.5400    0.0000 F   0  0  0  0  0  0  0  0  0  0  0  0
    5.3900    1.5400    0.0000 F   0  0  0  0  0  0  0  0  0  0  0  0
    5.3900   -1.5400    0.0000 F   0  0  0  0  0  0  0  0  0  0  0  0
    6.9300   -1.5400    0.0000 F   0  0  0  0  0  0  0  0  0  0  0  0
    6.9300    1.5400    0.0000 F   0  0  0  0  0  0  0  0  0  0  0  0
    8.4700    0.0000    0.0000 F   0  0  0  0  0  0  0  0  0  0  0  0
  2  1  1  0  0  0  0
  6  1  1  0  0  0  0
  8  1  1  0  0  0  0
  9  1  1  0  0  0  0
  3  2  1  0  0  0  0
 10  2  1  0  0  0  0
 11  2  1  0  0  0  0
  4  3  1  0  0  0  0
 12  3  1  0  0  0  0
 13  3  1  0  0  0  0
  5  4  1  0  0  0  0
 14  4  1  0  0  0  0
 15  4  1  0  0  0  0
  7  5  1  0  0  0  0
 16  5  1  0  0  0  0
 17  5  1  0  0  0  0
 18  7  1  0  0  0  0
 19  7  1  0  0  0  0
 20  7  1  0  0  0  0
 21 18  1  0  0  0  0
 24 18  1  0  0  0  0
 25 18  1  0  0  0  0
 22 21  1  0  0  0  0
 26 21  1  0  0  0  0
 27 21  1  0  0  0  0
 23 22  1  0  0  0  0
 28 22  1  0  0  0  0
 29 22  1  0  0  0  0
 30 23  1  0  0  0  0
 31 23  1  0  0  0  0
 32 23  1  0  0  0  0
M  END
>  <INPUT>
DTXSID90872298

>  <FOUND_BY>
DSSTox_Substance_Id

>  <DTXSID>
DTXSID90872298

>  <PREFERRED_NAME>
Perfluorodecane

>  <CASRN>
307-45-9

>  <INCHIKEY>
BPHQIXJDBIHMLT-UHFFFAOYSA-N

>  <IUPAC_NAME>
Docosafluorodecane

>  <SMILES>
FC(F)(F)C(F)(F)C(F)(F)C(F)(F)C(F)(F)C(F)(F)C(F)(F)C(F)(F)C(F)(F)C(F)(F)F

>  <INCHI_STRING>
InChI=1S/C10F22/c11-1(12,3(15,16)5(19,20)7(23,24)9(27,28)29)2(13,14)4(17,18)6(21,22)8(25,26)10(30,31)32


>  <MOLECULAR_FORMULA>
C10F22

>  <AVERAGE_MASS>
538.075

>  <MONOISOTOPIC_MASS>
537.964869586

>  <MOL_FILE>
MOL_FILE

$$$$

  -INDIGO-02112615072D

 27 26  0  0  0  0  0  0  0  0999 V2000
    8.9543    4.4432    0.0000 C   0  0  0  0  0  0  0  0  0  0  0  0
    8.0491    5.6891    0.0000 C   0  0  0  0  0  0  0  0  0  0  0  0
    6.5176    5.5282    0.0000 C   0  0  0  0  0  0  0  0  0  0  0  0
    6.3566    7.0597    0.0000 F   0  0  0  0  0  0  0  0  0  0  0  0
    4.9860    5.3672    0.0000 C   0  0  0  0  0  0  0  0  0  0  0  0
    3.4545    5.2062    0.0000 C   0  0  0  0  0  0  0  0  0  0  0  0
    3.2935    6.7378    0.0000 F   0  0  0  0  0  0  0  0  0  0  0  0
    3.6154    3.6747    0.0000 F   0  0  0  0  0  0  0  0  0  0  0  0
    1.9229    5.0452    0.0000 C   0  0  0  0  0  0  0  0  0  0  0  0
    1.7619    6.5768    0.0000 F   0  0  0  0  0  0  0  0  0  0  0  0
    2.0839    3.5137    0.0000 F   0  0  0  0  0  0  0  0  0  0  0  0
    0.3913    4.8843    0.0000 C   0  0  0  0  0  0  0  0  0  0  0  0
   -1.1402    4.7233    0.0000 C   0  0  0  0  0  0  0  0  0  0  0  0
   -2.6718    4.5623    0.0000 C   0  0  0  0  0  0  0  0  0  0  0  0
   -4.2034    4.4013    0.0000 C   0  0  0  0  0  0  0  0  0  0  0  0
   -5.7349    4.2404    0.0000 F   0  0  0  0  0  0  0  0  0  0  0  0
   -4.3643    5.9329    0.0000 F   0  0  0  0  0  0  0  0  0  0  0  0
   -4.0424    2.8698    0.0000 F   0  0  0  0  0  0  0  0  0  0  0  0
   -2.8328    6.0939    0.0000 F   0  0  0  0  0  0  0  0  0  0  0  0
   -2.5108    3.0308    0.0000 F   0  0  0  0  0  0  0  0  0  0  0  0
   -1.3012    6.2549    0.0000 F   0  0  0  0  0  0  0  0  0  0  0  0
   -0.9793    3.1917    0.0000 F   0  0  0  0  0  0  0  0  0  0  0  0
    0.2304    6.4158    0.0000 F   0  0  0  0  0  0  0  0  0  0  0  0
    0.5523    3.3527    0.0000 F   0  0  0  0  0  0  0  0  0  0  0  0
    4.8250    6.8988    0.0000 F   0  0  0  0  0  0  0  0  0  0  0  0
    5.1470    3.8356    0.0000 F   0  0  0  0  0  0  0  0  0  0  0  0
    6.6786    3.9966    0.0000 F   0  0  0  0  0  0  0  0  0  0  0  0
  1  2  2  0  0  0  0
  2  3  1  0  0  0  0
  3  4  1  0  0  0  0
  3  5  1  0  0  0  0
  5  6  1  0  0  0  0
  6  7  1  0  0  0  0
  6  8  1  0  0  0  0
  6  9  1  0  0  0  0
  9 10  1  0  0  0  0
  9 11  1  0  0  0  0
  9 12  1  0  0  0  0
 12 13  1  0  0  0  0
 13 14  1  0  0  0  0
 14 15  1  0  0  0  0
 15 16  1  0  0  0  0
 15 17  1  0  0  0  0
 15 18  1  0  0  0  0
 14 19  1  0  0  0  0
 14 20  1  0  0  0  0
 13 21  1  0  0  0  0
 13 22  1  0  0  0  0
 12 23  1  0  0  0  0
 12 24  1  0  0  0  0
  5 25  1  0  0  0  0
  5 26  1  0  0  0  0
  3 27  1  0  0  0  0
M  END
>  <INPUT>
DTXSID7074616

>  <FOUND_BY>
DSSTox_Substance_Id

>  <DTXSID>
DTXSID7074616

>  <PREFERRED_NAME>
1H,1H,2H-Perfluoro-1-decene

>  <CASRN>
21652-58-4

>  <INCHIKEY>
NKAMGQZDVMQEJL-UHFFFAOYSA-N

>  <IUPAC_NAME>
3,3,4,4,5,5,6,6,7,7,8,8,9,9,10,10,10-Heptadecafluorodec-1-ene

>  <SMILES>
FC(F)(F)C(F)(F)C(F)(F)C(F)(F)C(F)(F)C(F)(F)C(F)(F)C(F)(F)C=C

>  <INCHI_STRING>
InChI=1S/C10H3F17/c1-2-3(11,12)4(13,14)5(15,16)6(17,18)7(19,20)8(21,22)9(23,24)10(25,26)27/h2H,1H2


>  <MOLECULAR_FORMULA>
C10H3F17

>  <AVERAGE_MASS>
446.107

>  <MONOISOTOPIC_MASS>
445.996328868

>  <MOL_FILE>
MOL_FILE

$$$$

  -INDIGO-02112615072D

 24 23  0  0  0  0  0  0  0  0999 V2000
   10.6786    1.5400    0.0000 F   0  0  0  0  0  0  0  0  0  0  0  0
   10.6786   -1.5400    0.0000 F   0  0  0  0  0  0  0  0  0  0  0  0
    9.1386    1.5400    0.0000 F   0  0  0  0  0  0  0  0  0  0  0  0
    9.1386   -1.5400    0.0000 F   0  0  0  0  0  0  0  0  0  0  0  0
   12.2186    1.5400    0.0000 F   0  0  0  0  0  0  0  0  0  0  0  0
   12.2186   -1.5400    0.0000 F   0  0  0  0  0  0  0  0  0  0  0  0
    7.5986    1.5400    0.0000 F   0  0  0  0  0  0  0  0  0  0  0  0
    7.5986   -1.5400    0.0000 F   0  0  0  0  0  0  0  0  0  0  0  0
   13.7586    1.5400    0.0000 F   0  0  0  0  0  0  0  0  0  0  0  0
   13.7586   -1.5400    0.0000 F   0  0  0  0  0  0  0  0  0  0  0  0
    6.0586    1.5400    0.0000 F   0  0  0  0  0  0  0  0  0  0  0  0
    6.0586   -1.5400    0.0000 F   0  0  0  0  0  0  0  0  0  0  0  0
   16.0686    1.3337    0.0000 F   0  0  0  0  0  0  0  0  0  0  0  0
   16.0686   -1.3337    0.0000 F   0  0  0  0  0  0  0  0  0  0  0  0
    3.7486   -1.3337    0.0000 O   0  0  0  0  0  0  0  0  0  0  0  0
    3.7486    1.3337    0.0000 O   0  0  0  0  0  0  0  0  0  0  0  0
   10.6786    0.0000    0.0000 C   0  0  0  0  0  0  0  0  0  0  0  0
    9.1386    0.0000    0.0000 C   0  0  0  0  0  0  0  0  0  0  0  0
   12.2186    0.0000    0.0000 C   0  0  0  0  0  0  0  0  0  0  0  0
    7.5986    0.0000    0.0000 C   0  0  0  0  0  0  0  0  0  0  0  0
   13.7586    0.0000    0.0000 C   0  0  0  0  0  0  0  0  0  0  0  0
    6.0586    0.0000    0.0000 C   0  0  0  0  0  0  0  0  0  0  0  0
   15.2986    0.0000    0.0000 C   0  0  0  0  0  0  0  0  0  0  0  0
    4.5186    0.0000    0.0000 C   0  0  0  0  0  0  0  0  0  0  0  0
  1 17  1  0  0  0  0
  2 17  1  0  0  0  0
  3 18  1  0  0  0  0
  4 18  1  0  0  0  0
  5 19  1  0  0  0  0
  6 19  1  0  0  0  0
  7 20  1  0  0  0  0
  8 20  1  0  0  0  0
  9 21  1  0  0  0  0
 10 21  1  0  0  0  0
 11 22  1  0  0  0  0
 12 22  1  0  0  0  0
 13 23  1  0  0  0  0
 14 23  1  0  0  0  0
 15 24  1  0  0  0  0
 16 24  2  0  0  0  0
 17 18  1  0  0  0  0
 17 19  1  0  0  0  0
 18 20  1  0  0  0  0
 19 21  1  0  0  0  0
 20 22  1  0  0  0  0
 21 23  1  0  0  0  0
 22 24  1  0  0  0  0
M  END
>  <INPUT>
DTXSID70565479

>  <FOUND_BY>
DSSTox_Substance_Id

>  <DTXSID>
DTXSID70565479

>  <PREFERRED_NAME>
8H-Perfluorooctanoic acid

>  <CASRN>
13973-14-3

>  <INCHIKEY>
AEBAYKKLSQLBDU-UHFFFAOYSA-N

>  <IUPAC_NAME>
2,2,3,3,4,4,5,5,6,6,7,7,8,8-Tetradecafluorooctanoic acid

>  <SMILES>
OC(=O)C(F)(F)C(F)(F)C(F)(F)C(F)(F)C(F)(F)C(F)(F)C(F)F

>  <INCHI_STRING>
InChI=1S/C8H2F14O2/c9-1(10)3(11,12)5(15,16)7(19,20)8(21,22)6(17,18)4(13,14)2(23)24/h1H,(H,23,24)

>  <MOLECULAR_FORMULA>
C8H2F14O2

>  <AVERAGE_MASS>
396.08

>  <MONOISOTOPIC_MASS>
395.983123586

>  <MOL_FILE>
MOL_FILE

$$$$

  -INDIGO-02112615072D

 14 13  0  0  0  0  0  0  0  0999 V2000
    2.8737   -2.3100    0.0000 O   0  0  0  0  0  0  0  0  0  0  0  0
    1.5400   -1.5400    0.0000 C   0  0  0  0  0  0  0  0  0  0  0  0
    0.2063   -2.3100    0.0000 O   0  0  0  0  0  0  0  0  0  0  0  0
    0.2063   -3.8500    0.0000 N   0  0  0  0  0  0  0  0  0  0  0  0
   -1.1273   -4.6200    0.0000 C   0  0  0  0  0  0  0  0  0  0  0  0
   -2.4610   -3.8500    0.0000 O   0  0  0  0  0  0  0  0  0  0  0  0
   -1.1273   -6.1600    0.0000 C   0  0  0  0  0  0  0  0  0  0  0  0
   -1.1273   -7.7000    0.0000 F   0  0  0  0  0  0  0  0  0  0  0  0
    0.4127   -6.1600    0.0000 F   0  0  0  0  0  0  0  0  0  0  0  0
   -2.6673   -6.1600    0.0000 F   0  0  0  0  0  0  0  0  0  0  0  0
    1.5400    0.0000    0.0000 C   0  0  0  0  0  0  0  0  0  0  0  0
    1.5400    1.5400    0.0000 F   0  0  0  0  0  0  0  0  0  0  0  0
    3.0800    0.0000    0.0000 F   0  0  0  0  0  0  0  0  0  0  0  0
    0.0000    0.0000    0.0000 F   0  0  0  0  0  0  0  0  0  0  0  0
  1  2  2  0  0  0  0
  2  3  1  0  0  0  0
  3  4  1  0  0  0  0
  4  5  1  0  0  0  0
  5  6  2  0  0  0  0
  5  7  1  0  0  0  0
  7  8  1  0  0  0  0
  7  9  1  0  0  0  0
  7 10  1  0  0  0  0
  2 11  1  0  0  0  0
 11 12  1  0  0  0  0
 11 13  1  0  0  0  0
 11 14  1  0  0  0  0
M  END
>  <INPUT>
DTXSID9060990

>  <FOUND_BY>
DSSTox_Substance_Id

>  <DTXSID>
DTXSID9060990

>  <PREFERRED_NAME>
N,O-Bis(trifluoroacetyl)hydroxylamine

>  <CASRN>
684-78-6

>  <INCHIKEY>
CYSAMXITKBXZOP-UHFFFAOYSA-N

>  <IUPAC_NAME>
2,2,2-Trifluoro-N-[(trifluoroacetyl)oxy]acetamide

>  <SMILES>
FC(F)(F)C(=O)NOC(=O)C(F)(F)F

>  <INCHI_STRING>
InChI=1S/C4HF6NO3/c5-3(6,7)1(12)11-14-2(13)4(8,9)10/h(H,11,12)

>  <MOLECULAR_FORMULA>
C4HF6NO3

>  <AVERAGE_MASS>
225.046

>  <MONOISOTOPIC_MASS>
224.986061874

>  <MOL_FILE>
MOL_FILE

$$$$

  -INDIGO-02112615072D

 19 18  0  0  0  0  0  0  0  0999 V2000
    3.0800    3.1832    0.0000 F   0  0  0  0  0  0  0  0  0  0  0  0
    3.6437    1.0795    0.0000 F   0  0  0  0  0  0  0  0  0  0  0  0
    5.1837    3.7470    0.0000 F   0  0  0  0  0  0  0  0  0  0  0  0
    7.0812   -3.7470    0.0000 F   0  0  0  0  0  0  0  0  0  0  0  0
    5.5412   -2.2070    0.0000 F   0  0  0  0  0  0  0  0  0  0  0  0
    8.6212   -2.2070    0.0000 F   0  0  0  0  0  0  0  0  0  0  0  0
   13.7497    3.1832    0.0000 F   0  0  0  0  0  0  0  0  0  0  0  0
   13.1861    1.0795    0.0000 F   0  0  0  0  0  0  0  0  0  0  0  0
   11.6461    3.7470    0.0000 F   0  0  0  0  0  0  0  0  0  0  0  0
    9.7485    2.4132    0.0000 O   0  0  0  0  0  0  0  0  0  0  0  0
    7.0812    2.4132    0.0000 O   0  0  0  0  0  0  0  0  0  0  0  0
    8.4149    0.1032    0.0000 O   0  0  0  0  0  0  0  0  0  0  0  0
    8.4149    1.6432    0.0000 C   0  0  0  0  0  0  0  0  0  0  0  0
   11.0824    1.6432    0.0000 C   0  0  0  0  0  0  0  0  0  0  0  0
    7.0812   -0.6668    0.0000 C   0  0  0  0  0  0  0  0  0  0  0  0
    5.7475    1.6432    0.0000 C   0  0  0  0  0  0  0  0  0  0  0  0
    4.4137    2.4132    0.0000 C   0  0  0  0  0  0  0  0  0  0  0  0
    7.0812   -2.2070    0.0000 C   0  0  0  0  0  0  0  0  0  0  0  0
   12.4161    2.4132    0.0000 C   0  0  0  0  0  0  0  0  0  0  0  0
  1 17  1  0  0  0  0
  2 17  1  0  0  0  0
  3 17  1  0  0  0  0
  4 18  1  0  0  0  0
  5 18  1  0  0  0  0
  6 18  1  0  0  0  0
  7 19  1  0  0  0  0
  8 19  1  0  0  0  0
  9 19  1  0  0  0  0
 10 13  1  0  0  0  0
 10 14  1  0  0  0  0
 11 13  1  0  0  0  0
 11 16  1  0  0  0  0
 12 13  1  0  0  0  0
 12 15  1  0  0  0  0
 14 19  1  0  0  0  0
 15 18  1  0  0  0  0
 16 17  1  0  0  0  0
M  END
>  <INPUT>
DTXSID30395037

>  <FOUND_BY>
DSSTox_Substance_Id

>  <DTXSID>
DTXSID30395037

>  <PREFERRED_NAME>
tris(Trifluoroethoxy)methane

>  <CASRN>
58244-27-2

>  <INCHIKEY>
IESBVSNCDNHMSL-UHFFFAOYSA-N

>  <IUPAC_NAME>
2-[Bis(2,2,2-trifluoroethoxy)methoxy]-1,1,1-trifluoroethane

>  <SMILES>
FC(F)(F)COC(OCC(F)(F)F)OCC(F)(F)F

>  <INCHI_STRING>
InChI=1S/C7H7F9O3/c8-5(9,10)1-17-4(18-2-6(11,12)13)19-3-7(14,15)16/h4H,1-3H2

>  <MOLECULAR_FORMULA>
C7H7F9O3

>  <AVERAGE_MASS>
310.116

>  <MONOISOTOPIC_MASS>
310.025147552

>  <MOL_FILE>
MOL_FILE

$$$$

  -INDIGO-02112615072D

 15 14  0  0  0  0  0  0  0  0999 V2000
    6.3112    1.3337    0.0000 F   0  0  0  0  0  0  0  0  0  0  0  0
    7.8512   -1.3337    0.0000 F   0  0  0  0  0  0  0  0  0  0  0  0
    7.6449    2.1037    0.0000 F   0  0  0  0  0  0  0  0  0  0  0  0
    9.1849   -0.5637    0.0000 F   0  0  0  0  0  0  0  0  0  0  0  0
    4.9775    0.5637    0.0000 F   0  0  0  0  0  0  0  0  0  0  0  0
    6.5175   -2.1037    0.0000 F   0  0  0  0  0  0  0  0  0  0  0  0
   11.0824    0.7700    0.0000 F   0  0  0  0  0  0  0  0  0  0  0  0
    3.0800   -0.7700    0.0000 F   0  0  0  0  0  0  0  0  0  0  0  0
    9.7485    3.0800    0.0000 O   0  0  0  0  0  0  0  0  0  0  0  0
    4.4137   -3.0800    0.0000 O   0  0  0  0  0  0  0  0  0  0  0  0
    7.0812    0.0000    0.0000 C   0  0  0  0  0  0  0  0  0  0  0  0
    8.4149    0.7700    0.0000 C   0  0  0  0  0  0  0  0  0  0  0  0
    5.7475   -0.7700    0.0000 C   0  0  0  0  0  0  0  0  0  0  0  0
    9.7485    1.5400    0.0000 C   0  0  0  0  0  0  0  0  0  0  0  0
    4.4137   -1.5400    0.0000 C   0  0  0  0  0  0  0  0  0  0  0  0
  1 11  1  0  0  0  0
  2 11  1  0  0  0  0
  3 12  1  0  0  0  0
  4 12  1  0  0  0  0
  5 13  1  0  0  0  0
  6 13  1  0  0  0  0
  9 14  2  0  0  0  0
 10 15  2  0  0  0  0
 11 12  1  0  0  0  0
 11 13  1  0  0  0  0
 12 14  1  0  0  0  0
 13 15  1  0  0  0  0
  8 15  1  0  0  0  0
  7 14  1  0  0  0  0
M  END
>  <INPUT>
DTXSID50218052

>  <FOUND_BY>
DSSTox_Substance_Id

>  <DTXSID>
DTXSID50218052

>  <PREFERRED_NAME>
Perfluoroglutaryl difluoride

>  <CASRN>
678-78-4

>  <INCHIKEY>
XAKMJUAGVWKMOB-UHFFFAOYSA-N

>  <IUPAC_NAME>
Hexafluoropentanedioyl difluoride

>  <SMILES>
FC(=O)C(F)(F)C(F)(F)C(F)(F)C(F)=O

>  <INCHI_STRING>
InChI=1S/C5F8O2/c6-1(14)3(8,9)5(12,13)4(10,11)2(7)15


>  <MOLECULAR_FORMULA>
C5F8O2

>  <AVERAGE_MASS>
244.04

>  <MONOISOTOPIC_MASS>
243.977054544

>  <MOL_FILE>
MOL_FILE

$$$$

  -INDIGO-02112615072D

 12 11  0  0  0  0  0  0  0  0999 V2000
    8.4149    0.1032    0.0000 S   0  0  0  0  0  0  0  0  0  0  0  0
   11.0824    1.6432    0.0000 F   0  0  0  0  0  0  0  0  0  0  0  0
   10.5187   -0.4605    0.0000 F   0  0  0  0  0  0  0  0  0  0  0  0
    8.9785    2.2070    0.0000 F   0  0  0  0  0  0  0  0  0  0  0  0
    3.0800    0.1032    0.0000 F   0  0  0  0  0  0  0  0  0  0  0  0
    4.4137   -2.2070    0.0000 F   0  0  0  0  0  0  0  0  0  0  0  0
    7.0812   -0.6668    0.0000 O   0  0  0  0  0  0  0  0  0  0  0  0
    7.6449    1.4368    0.0000 O   0  0  0  0  0  0  0  0  0  0  0  0
    9.1849   -1.2305    0.0000 O   0  0  0  0  0  0  0  0  0  0  0  0
    5.7475    0.1032    0.0000 C   0  0  0  0  0  0  0  0  0  0  0  0
    9.7485    0.8732    0.0000 C   0  0  0  0  0  0  0  0  0  0  0  0
    4.4137   -0.6668    0.0000 C   0  0  0  0  0  0  0  0  0  0  0  0
  1  7  1  0  0  0  0
  1  8  2  0  0  0  0
  1  9  2  0  0  0  0
  1 11  1  0  0  0  0
  2 11  1  0  0  0  0
  3 11  1  0  0  0  0
  4 11  1  0  0  0  0
  5 12  1  0  0  0  0
  6 12  1  0  0  0  0
  7 10  1  0  0  0  0
 10 12  1  0  0  0  0
M  END
>  <INPUT>
DTXSID30378880

>  <FOUND_BY>
DSSTox_Substance_Id

>  <DTXSID>
DTXSID30378880

>  <PREFERRED_NAME>
2,2-Difluoroethyl triflate

>  <CASRN>
74427-22-8

>  <INCHIKEY>
NKULBUOBGILEAR-UHFFFAOYSA-N

>  <IUPAC_NAME>
2,2-Difluoroethyl trifluoromethanesulfonate

>  <SMILES>
FC(F)COS(=O)(=O)C(F)(F)F

>  <INCHI_STRING>
InChI=1S/C3H3F5O3S/c4-2(5)1-11-12(9,10)3(6,7)8/h2H,1H2

>  <MOLECULAR_FORMULA>
C3H3F5O3S

>  <AVERAGE_MASS>
214.11

>  <MONOISOTOPIC_MASS>
213.972305946

>  <MOL_FILE>
MOL_FILE

$$$$

  -INDIGO-02112615072D

 14 13  0  0  0  0  0  0  0  0999 V2000
    4.9775    0.9486    0.0000 F   0  0  0  0  0  0  0  0  0  0  0  0
    6.5175   -1.7186    0.0000 F   0  0  0  0  0  0  0  0  0  0  0  0
   10.5187   -0.9486    0.0000 F   0  0  0  0  0  0  0  0  0  0  0  0
    8.9785    1.7186    0.0000 F   0  0  0  0  0  0  0  0  0  0  0  0
    3.0800   -0.3851    0.0000 F   0  0  0  0  0  0  0  0  0  0  0  0
    4.4137   -2.6951    0.0000 F   0  0  0  0  0  0  0  0  0  0  0  0
   12.4161    0.3851    0.0000 F   0  0  0  0  0  0  0  0  0  0  0  0
   11.0824    2.6951    0.0000 F   0  0  0  0  0  0  0  0  0  0  0  0
    8.4149   -0.3851    0.0000 O   0  0  0  0  0  0  0  0  0  0  0  0
    5.7475   -0.3851    0.0000 C   0  0  0  0  0  0  0  0  0  0  0  0
    7.0812    0.3851    0.0000 C   0  0  0  0  0  0  0  0  0  0  0  0
    9.7485    0.3851    0.0000 C   0  0  0  0  0  0  0  0  0  0  0  0
    4.4137   -1.1551    0.0000 C   0  0  0  0  0  0  0  0  0  0  0  0
   11.0824    1.1551    0.0000 C   0  0  0  0  0  0  0  0  0  0  0  0
  1 10  1  0  0  0  0
  2 10  1  0  0  0  0
  3 12  1  0  0  0  0
  4 12  1  0  0  0  0
  5 13  1  0  0  0  0
  6 13  1  0  0  0  0
  7 14  1  0  0  0  0
  8 14  1  0  0  0  0
  9 11  1  0  0  0  0
  9 12  1  0  0  0  0
 10 11  1  0  0  0  0
 10 13  1  0  0  0  0
 12 14  1  0  0  0  0
M  END
>  <INPUT>
DTXSID60380219

>  <FOUND_BY>
DSSTox_Substance_Id

>  <DTXSID>
DTXSID60380219

>  <PREFERRED_NAME>
(2H-Perfluoroethyl)(1H,1H,3H-perfluoropropyl)ether

>  <CASRN>
16627-68-2

>  <INCHIKEY>
HCBRSIIGBBDDCD-UHFFFAOYSA-N

>  <IUPAC_NAME>
1,1,2,2-Tetrafluoro-3-(1,1,2,2-tetrafluoroethoxy)propane

>  <SMILES>
FC(F)C(F)(F)COC(F)(F)C(F)F

>  <INCHI_STRING>
InChI=1S/C5H4F8O/c6-2(7)4(10,11)1-14-5(12,13)3(8)9/h2-3H,1H2


>  <MOLECULAR_FORMULA>
C5H4F8O

>  <AVERAGE_MASS>
232.073

>  <MONOISOTOPIC_MASS>
232.013440053

>  <MOL_FILE>
MOL_FILE

$$$$

  -INDIGO-02112615072D

 13 12  0  0  0  0  0  0  0  0999 V2000
    1.5400   -2.6673    0.0000 O   0  0  0  0  0  0  0  0  0  0  0  0
    2.3100   -1.3337    0.0000 C   0  0  0  0  0  0  0  0  0  0  0  0
    3.8500   -1.3337    0.0000 O   0  0  0  0  0  0  0  0  0  0  0  0
    4.6200   -2.6673    0.0000 C   0  0  0  0  0  0  0  0  0  0  0  0
    6.1600   -2.6673    0.0000 C   0  0  0  0  0  0  0  0  0  0  0  0
    6.1600   -1.1273    0.0000 F   0  0  0  0  0  0  0  0  0  0  0  0
    6.1600   -4.2073    0.0000 F   0  0  0  0  0  0  0  0  0  0  0  0
    7.7000   -2.6673    0.0000 C   0  0  0  0  0  0  0  0  0  0  0  0
    9.2400   -2.6673    0.0000 F   0  0  0  0  0  0  0  0  0  0  0  0
    7.7000   -1.1273    0.0000 F   0  0  0  0  0  0  0  0  0  0  0  0
    7.7000   -4.2073    0.0000 F   0  0  0  0  0  0  0  0  0  0  0  0
    1.5400    0.0000    0.0000 C   0  0  0  0  0  0  0  0  0  0  0  0
    0.0000    0.0000    0.0000 C   0  0  0  0  0  0  0  0  0  0  0  0
  1  2  2  0  0  0  0
  2  3  1  0  0  0  0
  3  4  1  0  0  0  0
  4  5  1  0  0  0  0
  5  6  1  0  0  0  0
  5  7  1  0  0  0  0
  5  8  1  0  0  0  0
  8  9  1  0  0  0  0
  8 10  1  0  0  0  0
  8 11  1  0  0  0  0
  2 12  1  0  0  0  0
 12 13  2  0  0  0  0
M  END
>  <INPUT>
DTXSID9059884

>  <FOUND_BY>
DSSTox_Substance_Id

>  <DTXSID>
DTXSID9059884

>  <PREFERRED_NAME>
1H,1H-Perfluoropropyl acrylate

>  <CASRN>
356-86-5

>  <INCHIKEY>
JDVGNKIUXZQTFD-UHFFFAOYSA-N

>  <IUPAC_NAME>
2,2,3,3,3-Pentafluoropropyl prop-2-enoate

>  <SMILES>
FC(F)(F)C(F)(F)COC(=O)C=C

>  <INCHI_STRING>
InChI=1S/C6H5F5O2/c1-2-4(12)13-3-5(7,8)6(9,10)11/h2H,1,3H2

>  <MOLECULAR_FORMULA>
C6H5F5O2

>  <AVERAGE_MASS>
204.096

>  <MONOISOTOPIC_MASS>
204.020970216

>  <MOL_FILE>
MOL_FILE

$$$$

  -INDIGO-02112615072D

 15 14  0  0  0  0  0  0  0  0999 V2000
    1.5400    0.0000    0.0000 C   0  0  0  0  0  0  0  0  0  0  0  0
    1.5400   -1.5400    0.0000 C   0  0  0  0  0  0  0  0  0  0  0  0
    1.5400   -3.0800    0.0000 C   0  0  0  0  0  0  0  0  0  0  0  0
    1.5400   -4.6200    0.0000 F   0  0  0  0  0  0  0  0  0  0  0  0
    3.0800   -3.0800    0.0000 F   0  0  0  0  0  0  0  0  0  0  0  0
    0.0000   -3.0800    0.0000 F   0  0  0  0  0  0  0  0  0  0  0  0
    3.0800   -1.5400    0.0000 F   0  0  0  0  0  0  0  0  0  0  0  0
    0.0000   -1.5400    0.0000 F   0  0  0  0  0  0  0  0  0  0  0  0
    1.5400    1.5400    0.0000 C   0  0  0  0  0  0  0  0  0  0  0  0
    0.2063    2.3100    0.0000 O   0  0  0  0  0  0  0  0  0  0  0  0
    0.2063    3.8500    0.0000 C   0  0  0  0  0  0  0  0  0  0  0  0
   -1.1273    4.6200    0.0000 C   0  0  0  0  0  0  0  0  0  0  0  0
    2.8737    2.3100    0.0000 O   0  0  0  0  0  0  0  0  0  0  0  0
    3.0800    0.0000    0.0000 F   0  0  0  0  0  0  0  0  0  0  0  0
    0.0000    0.0000    0.0000 F   0  0  0  0  0  0  0  0  0  0  0  0
  1  2  1  0  0  0  0
  2  3  1  0  0  0  0
  3  4  1  0  0  0  0
  3  5  1  0  0  0  0
  3  6  1  0  0  0  0
  2  7  1  0  0  0  0
  2  8  1  0  0  0  0
  1  9  1  0  0  0  0
  9 10  1  0  0  0  0
 10 11  1  0  0  0  0
 11 12  1  0  0  0  0
  9 13  2  0  0  0  0
  1 14  1  0  0  0  0
  1 15  1  0  0  0  0
M  END
>  <INPUT>
DTXSID9059882

>  <FOUND_BY>
DSSTox_Substance_Id

>  <DTXSID>
DTXSID9059882

>  <PREFERRED_NAME>
Ethyl perfluorobutanoate

>  <CASRN>
356-27-4

>  <INCHIKEY>
JVHJRIQPDBCRRE-UHFFFAOYSA-N

>  <IUPAC_NAME>
Ethyl heptafluorobutanoate

>  <SMILES>
CCOC(=O)C(F)(F)C(F)(F)C(F)(F)F

>  <INCHI_STRING>
InChI=1S/C6H5F7O2/c1-2-15-3(14)4(7,8)5(9,10)6(11,12)13/h2H2,1H3

>  <MOLECULAR_FORMULA>
C6H5F7O2

>  <AVERAGE_MASS>
242.093

>  <MONOISOTOPIC_MASS>
242.017776542

>  <MOL_FILE>
MOL_FILE

$$$$

  -INDIGO-02112615072D

 20 20  0  0  0  0  0  0  0  0999 V2000
    2.3934    4.3900    0.0000 O   0  0  0  0  0  0  0  0  0  0  0  0
    1.0599    3.6200    0.0000 C   0  0  0  0  0  0  0  0  0  0  0  0
    1.0599    2.0800    0.0000 C   0  0  0  0  0  0  0  0  0  0  0  0
    2.3057    1.1749    0.0000 S   0  0  0  0  0  0  0  0  0  0  0  0
    1.8299   -0.2899    0.0000 C   0  0  0  0  0  0  0  0  0  0  0  0
    0.2899   -0.2899    0.0000 C   0  0  0  0  0  0  0  0  0  0  0  0
   -0.1861    1.1749    0.0000 C   0  0  0  0  0  0  0  0  0  0  0  0
   -0.2738    4.3900    0.0000 C   0  0  0  0  0  0  0  0  0  0  0  0
   -0.2738    5.9300    0.0000 C   0  0  0  0  0  0  0  0  0  0  0  0
    1.0599    6.7000    0.0000 O   0  0  0  0  0  0  0  0  0  0  0  0
   -1.6076    6.7000    0.0000 C   0  0  0  0  0  0  0  0  0  0  0  0
   -0.8376    8.0338    0.0000 F   0  0  0  0  0  0  0  0  0  0  0  0
   -2.3776    5.3663    0.0000 F   0  0  0  0  0  0  0  0  0  0  0  0
   -2.9413    7.4700    0.0000 C   0  0  0  0  0  0  0  0  0  0  0  0
   -2.1713    8.8038    0.0000 F   0  0  0  0  0  0  0  0  0  0  0  0
   -3.7113    6.1363    0.0000 F   0  0  0  0  0  0  0  0  0  0  0  0
   -4.2749    8.2400    0.0000 C   0  0  0  0  0  0  0  0  0  0  0  0
   -5.6086    9.0100    0.0000 F   0  0  0  0  0  0  0  0  0  0  0  0
   -3.5049    9.5738    0.0000 F   0  0  0  0  0  0  0  0  0  0  0  0
   -5.0449    6.9063    0.0000 F   0  0  0  0  0  0  0  0  0  0  0  0
  1  2  2  0  0  0  0
  2  3  1  0  0  0  0
  3  4  1  0  0  0  0
  4  5  1  0  0  0  0
  5  6  2  0  0  0  0
  6  7  1  0  0  0  0
  3  7  2  0  0  0  0
  2  8  1  0  0  0  0
  8  9  1  0  0  0  0
  9 10  2  0  0  0  0
  9 11  1  0  0  0  0
 11 12  1  0  0  0  0
 11 13  1  0  0  0  0
 11 14  1  0  0  0  0
 14 15  1  0  0  0  0
 14 16  1  0  0  0  0
 14 17  1  0  0  0  0
 17 18  1  0  0  0  0
 17 19  1  0  0  0  0
 17 20  1  0  0  0  0
M  END
>  <INPUT>
DTXSID7060332

>  <FOUND_BY>
DSSTox_Substance_Id

>  <DTXSID>
DTXSID7060332

>  <PREFERRED_NAME>
(Perfluorobutyryl)-2-thenoylmethane

>  <CASRN>
559-94-4

>  <INCHIKEY>
QHOQGOZSTQAYRH-UHFFFAOYSA-N

>  <IUPAC_NAME>
4,4,5,5,6,6,6-Heptafluoro-1-(thiophen-2-yl)hexane-1,3-dione

>  <SMILES>
FC(F)(F)C(F)(F)C(F)(F)C(=O)CC(=O)C1=CC=CS1

>  <INCHI_STRING>
InChI=1S/C10H5F7O2S/c11-8(12,9(13,14)10(15,16)17)7(19)4-5(18)6-2-1-3-20-6/h1-3H,4H2

>  <MOLECULAR_FORMULA>
C10H5F7O2S

>  <AVERAGE_MASS>
322.2

>  <MONOISOTOPIC_MASS>
321.989847716

>  <MOL_FILE>
MOL_FILE

$$$$

  -INDIGO-02112615072D

 20 19  0  0  0  0  0  0  0  0999 V2000
    3.0800   -2.6951    0.0000 I   0  0  0  0  0  0  0  0  0  0  0  0
   12.4161    2.6951    0.0000 Cl  0  0  0  0  0  0  0  0  0  0  0  0
    6.3112    0.9486    0.0000 F   0  0  0  0  0  0  0  0  0  0  0  0
    7.8512   -1.7186    0.0000 F   0  0  0  0  0  0  0  0  0  0  0  0
    9.1849   -0.9486    0.0000 F   0  0  0  0  0  0  0  0  0  0  0  0
    7.6449    1.7186    0.0000 F   0  0  0  0  0  0  0  0  0  0  0  0
    4.9775    0.1786    0.0000 F   0  0  0  0  0  0  0  0  0  0  0  0
    6.5175   -2.4886    0.0000 F   0  0  0  0  0  0  0  0  0  0  0  0
   10.5187   -0.1786    0.0000 F   0  0  0  0  0  0  0  0  0  0  0  0
    8.9785    2.4886    0.0000 F   0  0  0  0  0  0  0  0  0  0  0  0
    3.6437   -0.5914    0.0000 F   0  0  0  0  0  0  0  0  0  0  0  0
    5.1837   -3.2586    0.0000 F   0  0  0  0  0  0  0  0  0  0  0  0
   11.8524    0.5914    0.0000 F   0  0  0  0  0  0  0  0  0  0  0  0
   10.3124    3.2586    0.0000 F   0  0  0  0  0  0  0  0  0  0  0  0
    7.0812   -0.3851    0.0000 C   0  0  0  0  0  0  0  0  0  0  0  0
    8.4149    0.3851    0.0000 C   0  0  0  0  0  0  0  0  0  0  0  0
    5.7475   -1.1551    0.0000 C   0  0  0  0  0  0  0  0  0  0  0  0
    9.7485    1.1551    0.0000 C   0  0  0  0  0  0  0  0  0  0  0  0
    4.4137   -1.9251    0.0000 C   0  0  0  0  0  0  0  0  0  0  0  0
   11.0824    1.9251    0.0000 C   0  0  0  0  0  0  0  0  0  0  0  0
  1 19  1  0  0  0  0
  2 20  1  0  0  0  0
  3 15  1  0  0  0  0
  4 15  1  0  0  0  0
  5 16  1  0  0  0  0
  6 16  1  0  0  0  0
  7 17  1  0  0  0  0
  8 17  1  0  0  0  0
  9 18  1  0  0  0  0
 10 18  1  0  0  0  0
 11 19  1  0  0  0  0
 12 19  1  0  0  0  0
 13 20  1  0  0  0  0
 14 20  1  0  0  0  0
 15 16  1  0  0  0  0
 15 17  1  0  0  0  0
 16 18  1  0  0  0  0
 17 19  1  0  0  0  0
 18 20  1  0  0  0  0
M  END
>  <INPUT>
DTXSID50371479

>  <FOUND_BY>
DSSTox_Substance_Id

>  <DTXSID>
DTXSID50371479

>  <PREFERRED_NAME>
1-Chloro-6-iodoperfluorohexane

>  <CASRN>
16486-97-8

>  <INCHIKEY>
MKLCOZPKBKKNKG-UHFFFAOYSA-N

>  <IUPAC_NAME>
1-Chloro-1,1,2,2,3,3,4,4,5,5,6,6-dodecafluoro-6-iodohexane

>  <SMILES>
FC(F)(Cl)C(F)(F)C(F)(F)C(F)(F)C(F)(F)C(F)(F)I

>  <INCHI_STRING>
InChI=1S/C6ClF12I/c7-5(16,17)3(12,13)1(8,9)2(10,11)4(14,15)6(18,19)20

>  <MOLECULAR_FORMULA>
C6ClF12I

>  <AVERAGE_MASS>
462.4

>  <MONOISOTOPIC_MASS>
461.85416

>  <MOL_FILE>
MOL_FILE

$$$$

  -INDIGO-02112615072D

 23 24  0  0  1  0  0  0  0  0999 V2000
    9.6708   -4.3243    0.0000 F   0  0  0  0  0  0  0  0  0  0  0  0
   10.4679   -1.3494    0.0000 F   0  0  0  0  0  0  0  0  0  0  0  0
   11.1582   -4.7230    0.0000 F   0  0  0  0  0  0  0  0  0  0  0  0
   11.9554   -1.7479    0.0000 F   0  0  0  0  0  0  0  0  0  0  0  0
   14.5320   -4.0327    0.0000 F   0  0  0  0  0  0  0  0  0  0  0  0
   12.6457   -5.1216    0.0000 F   0  0  0  0  0  0  0  0  0  0  0  0
   13.4430   -2.1465    0.0000 F   0  0  0  0  0  0  0  0  0  0  0  0
   10.4408    0.7816    0.0000 O   0  0  0  0  0  0  0  0  0  0  0  0
    7.4928   -3.5273    0.0000 O   0  0  0  0  0  0  0  0  0  0  0  0
    6.2517    3.5902    0.0000 C   0  0  0  0  0  0  0  0  0  0  0  0
    5.1173    2.0769    0.0000 C   0  0  2  0  0  0  0  0  0  0  0  0
    5.5158    0.5891    0.0000 C   0  0  2  0  0  0  0  0  0  0  0  0
    8.1833   -0.9509    0.0000 C   0  0  0  0  0  0  0  0  0  0  0  0
    2.2958    0.9081    0.0000 C   0  0  0  0  0  0  0  0  0  0  0  0
    2.6945   -0.5794    0.0000 C   0  0  0  0  0  0  0  0  0  0  0  0
    8.9533    0.3829    0.0000 C   0  0  0  0  0  0  0  0  0  0  0  0
    6.0906    5.1216    0.0000 C   0  0  0  0  0  0  0  0  0  0  0  0
    7.6586    4.2164    0.0000 C   0  0  0  0  0  0  0  0  0  0  0  0
    4.7186    3.5644    0.0000 C   0  0  0  0  0  0  0  0  0  0  0  0
    8.5818   -2.4382    0.0000 C   0  0  0  0  0  0  0  0  0  0  0  0
   10.0694   -2.8370    0.0000 C   0  0  0  0  0  0  0  0  0  0  0  0
   11.5567   -3.2355    0.0000 C   0  0  0  0  0  0  0  0  0  0  0  0
   13.0445   -3.6342    0.0000 C   0  0  0  0  0  0  0  0  0  0  0  0
  1 21  1  0  0  0  0
  2 21  1  0  0  0  0
  3 22  1  0  0  0  0
  4 22  1  0  0  0  0
  5 23  1  0  0  0  0
  6 23  1  0  0  0  0
  7 23  1  0  0  0  0
  8 16  2  0  0  0  0
  9 20  2  0  0  0  0
 10 11  1  0  0  0  0
 10 12  1  0  0  0  0
 10 17  1  0  0  0  0
 10 18  1  0  0  0  0
 11 14  1  0  0  0  0
 11 16  1  0  0  0  0
 11 19  1  6  0  0  0
 12 13  1  0  0  0  0
 12 15  1  6  0  0  0
 13 16  1  0  0  0  0
 13 20  1  0  0  0  0
 14 15  1  0  0  0  0
 20 21  1  0  0  0  0
 21 22  1  0  0  0  0
 22 23  1  0  0  0  0
M  END
>  <INPUT>
DTXSID50583510

>  <FOUND_BY>
DSSTox_Substance_Id

>  <DTXSID>
DTXSID50583510

>  <PREFERRED_NAME>
(1S,4S)-3-(Heptafluorobutyryl)camphor

>  <CASRN>
115224-00-5

>  <INCHIKEY>
PEWOESYEGLBLNR-NSMOOJLNSA-N

>  <IUPAC_NAME>
(1S,4S)-3-(2,2,3,3,4,4,4-Heptafluorobutanoyl)-1,7,7-trimethylbicyclo[2.2.1]heptan-2-one

>  <SMILES>
CC1(C)[C@H]2CC[C@]1(C)C(=O)C2C(=O)C(F)(F)C(F)(F)C(F)(F)F

>  <INCHI_STRING>
InChI=1S/C14H15F7O2/c1-10(2)6-4-5-11(10,3)8(22)7(6)9(23)12(15,16)13(17,18)14(19,20)21/h6-7H,4-5H2,1-3H3/t6-,7?,11+/m0/s1

>  <MOLECULAR_FORMULA>
C14H15F7O2

>  <AVERAGE_MASS>
348.261

>  <MONOISOTOPIC_MASS>
348.096026864

>  <MOL_FILE>
MOL_FILE

$$$$

  -INDIGO-02112615072D

 11 10  0  0  0  0  0  0  0  0999 V2000
   -3.0800    0.0000    0.0000 F   0  0  0  0  0  0  0  0  0  0  0  0
   -1.5400    0.0000    0.0000 C   0  0  0  0  0  0  0  0  0  0  0  0
   -1.5400   -1.5400    0.0000 F   0  0  0  0  0  0  0  0  0  0  0  0
   -1.5400    1.5400    0.0000 F   0  0  0  0  0  0  0  0  0  0  0  0
    0.0000    0.0000    0.0000 C   0  0  0  0  0  0  0  0  0  0  0  0
    0.0000   -1.5400    0.0000 F   0  0  0  0  0  0  0  0  0  0  0  0
    0.0000    1.5400    0.0000 Br  0  0  0  0  0  0  0  0  0  0  0  0
    1.5400    0.0000    0.0000 C   0  0  0  0  0  0  0  0  0  0  0  0
    1.5400   -1.5400    0.0000 F   0  0  0  0  0  0  0  0  0  0  0  0
    1.5400    1.5400    0.0000 F   0  0  0  0  0  0  0  0  0  0  0  0
    3.0800    0.0000    0.0000 Br  0  0  0  0  0  0  0  0  0  0  0  0
  1  2  1  0  0  0  0
  2  3  1  0  0  0  0
  2  4  1  0  0  0  0
  2  5  1  0  0  0  0
  5  6  1  0  0  0  0
  5  7  1  0  0  0  0
  5  8  1  0  0  0  0
  8  9  1  0  0  0  0
  8 10  1  0  0  0  0
  8 11  1  0  0  0  0
M  END
>  <INPUT>
DTXSID60880143

>  <FOUND_BY>
DSSTox_Substance_Id

>  <DTXSID>
DTXSID60880143

>  <PREFERRED_NAME>
1,2-Dibromohexafluoropropane

>  <CASRN>
661-95-0

>  <INCHIKEY>
KTULQNFKNLFOHL-UHFFFAOYNA-N

>  <IUPAC_NAME>
1,2-Dibromo-1,1,2,3,3,3-hexafluoropropane

>  <SMILES>
FC(F)(F)C(F)(Br)C(F)(F)Br

>  <INCHI_STRING>
InChI=1S/C3Br2F6/c4-1(6,2(5,7)8)3(9,10)11

>  <MOLECULAR_FORMULA>
C3Br2F6

>  <AVERAGE_MASS>
309.831

>  <MONOISOTOPIC_MASS>
307.827095

>  <MOL_FILE>
MOL_FILE

$$$$

  -INDIGO-02112615072D

 15 14  0  0  0  0  0  0  0  0999 V2000
    8.4149    1.0519    0.0000 S   0  0  0  0  0  0  0  0  0  0  0  0
    4.9775    0.8454    0.0000 F   0  0  0  0  0  0  0  0  0  0  0  0
    6.5175   -1.8219    0.0000 F   0  0  0  0  0  0  0  0  0  0  0  0
    6.3112    1.6154    0.0000 F   0  0  0  0  0  0  0  0  0  0  0  0
    7.8512   -1.0519    0.0000 F   0  0  0  0  0  0  0  0  0  0  0  0
    3.0800   -2.0281    0.0000 F   0  0  0  0  0  0  0  0  0  0  0  0
    3.6437    0.0754    0.0000 F   0  0  0  0  0  0  0  0  0  0  0  0
    5.1837   -2.5919    0.0000 F   0  0  0  0  0  0  0  0  0  0  0  0
   12.4161    0.2819    0.0000 O   0  0  0  0  0  0  0  0  0  0  0  0
   11.0824    2.5919    0.0000 O   0  0  0  0  0  0  0  0  0  0  0  0
    5.7475   -0.4881    0.0000 C   0  0  0  0  0  0  0  0  0  0  0  0
    7.0812    0.2819    0.0000 C   0  0  0  0  0  0  0  0  0  0  0  0
    4.4137   -1.2581    0.0000 C   0  0  0  0  0  0  0  0  0  0  0  0
    9.7485    0.2819    0.0000 C   0  0  0  0  0  0  0  0  0  0  0  0
   11.0824    1.0519    0.0000 C   0  0  0  0  0  0  0  0  0  0  0  0
  1 12  1  0  0  0  0
  1 14  1  0  0  0  0
  2 11  1  0  0  0  0
  3 11  1  0  0  0  0
  4 12  1  0  0  0  0
  5 12  1  0  0  0  0
  6 13  1  0  0  0  0
  7 13  1  0  0  0  0
  8 13  1  0  0  0  0
  9 15  1  0  0  0  0
 10 15  2  0  0  0  0
 11 12  1  0  0  0  0
 11 13  1  0  0  0  0
 14 15  1  0  0  0  0
M  END
>  <INPUT>
DTXSID40392097

>  <FOUND_BY>
DSSTox_Substance_Id

>  <DTXSID>
DTXSID40392097

>  <PREFERRED_NAME>
[(Heptafluoropropyl)sulfanyl]acetic acid

>  <CASRN>
204057-69-2

>  <INCHIKEY>
QGUZLZPSVHUJGC-UHFFFAOYSA-N

>  <IUPAC_NAME>
[(Heptafluoropropyl)sulfanyl]acetic acid

>  <SMILES>
OC(=O)CSC(F)(F)C(F)(F)C(F)(F)F

>  <INCHI_STRING>
InChI=1S/C5H3F7O2S/c6-3(7,4(8,9)10)5(11,12)15-1-2(13)14/h1H2,(H,13,14)

>  <MOLECULAR_FORMULA>
C5H3F7O2S

>  <AVERAGE_MASS>
260.13

>  <MONOISOTOPIC_MASS>
259.974197652

>  <MOL_FILE>
MOL_FILE

$$$$

  -INDIGO-02112615072D

 13 12  0  0  0  0  0  0  0  0999 V2000
   -4.2309    0.0001    0.0000 F   0  0  0  0  0  0  0  0  0  0  0  0
   -2.6909    0.0001    0.0000 C   0  0  0  0  0  0  0  0  0  0  0  0
   -2.6909   -1.5401    0.0000 F   0  0  0  0  0  0  0  0  0  0  0  0
   -2.6909    1.5401    0.0000 F   0  0  0  0  0  0  0  0  0  0  0  0
   -1.1507    0.0001    0.0000 C   0  0  0  0  0  0  0  0  0  0  0  0
   -1.1507   -1.5401    0.0000 F   0  0  0  0  0  0  0  0  0  0  0  0
   -1.1507    1.5401    0.0000 F   0  0  0  0  0  0  0  0  0  0  0  0
    0.3807    0.0001    0.0000 C   0  0  0  0  0  0  0  0  0  0  0  0
    0.3807   -1.5401    0.0000 F   0  0  0  0  0  0  0  0  0  0  0  0
    0.3807    1.5401    0.0000 F   0  0  0  0  0  0  0  0  0  0  0  0
    1.9207    0.0001    0.0000 C   0  0  0  0  0  0  0  0  0  0  0  0
    2.6909    1.3286    0.0000 C   0  0  0  0  0  0  0  0  0  0  0  0
    4.2309    1.3286    0.0000 I   0  0  0  0  0  0  0  0  0  0  0  0
  1  2  1  0  0  0  0
  2  3  1  0  0  0  0
  2  4  1  0  0  0  0
  2  5  1  0  0  0  0
  5  6  1  0  0  0  0
  5  7  1  0  0  0  0
  5  8  1  0  0  0  0
  8  9  1  0  0  0  0
  8 10  1  0  0  0  0
  8 11  1  0  0  0  0
 11 12  1  0  0  0  0
 12 13  1  0  0  0  0
M  END
>  <INPUT>
DTXSID60880148

>  <FOUND_BY>
DSSTox_Substance_Id

>  <DTXSID>
DTXSID60880148

>  <PREFERRED_NAME>
3:2 Fluorotelomer iodide

>  <CASRN>
1513-88-8

>  <INCHIKEY>
TZNRRNKRZXHADL-UHFFFAOYSA-N

>  <IUPAC_NAME>
1,1,1,2,2,3,3-Heptafluoro-5-iodopentane

>  <SMILES>
FC(F)(F)C(F)(F)C(F)(F)CCI

>  <INCHI_STRING>
InChI=1S/C5H4F7I/c6-3(7,1-2-13)4(8,9)5(10,11)12/h1-2H2

>  <MOLECULAR_FORMULA>
C5H4F7I

>  <AVERAGE_MASS>
323.98

>  <MONOISOTOPIC_MASS>
323.92459

>  <MOL_FILE>
MOL_FILE

$$$$

  -INDIGO-02112615072D

 18 17  0  0  0  0  0  0  0  0999 V2000
    7.2875   -2.9661    0.0000 F   0  0  0  0  0  0  0  0  0  0  0  0
    7.0812    0.4713    0.0000 F   0  0  0  0  0  0  0  0  0  0  0  0
    8.6212   -2.1961    0.0000 F   0  0  0  0  0  0  0  0  0  0  0  0
    3.8500   -3.1724    0.0000 F   0  0  0  0  0  0  0  0  0  0  0  0
    3.8500   -1.6324    0.0000 F   0  0  0  0  0  0  0  0  0  0  0  0
    5.9537   -3.7361    0.0000 F   0  0  0  0  0  0  0  0  0  0  0  0
   10.5187    0.6776    0.0000 F   0  0  0  0  0  0  0  0  0  0  0  0
    9.9549   -1.4261    0.0000 F   0  0  0  0  0  0  0  0  0  0  0  0
    8.4149    1.2413    0.0000 F   0  0  0  0  0  0  0  0  0  0  0  0
    3.0800    2.7813    0.0000 O   0  0  0  0  0  0  0  0  0  0  0  0
    5.7475    2.7813    0.0000 O   0  0  0  0  0  0  0  0  0  0  0  0
    6.5175   -1.6324    0.0000 C   0  0  0  0  0  0  0  0  0  0  0  0
    5.7475   -0.2989    0.0000 C   0  0  0  0  0  0  0  0  0  0  0  0
    7.8512   -0.8624    0.0000 C   0  0  0  0  0  0  0  0  0  0  0  0
    5.1837   -2.4024    0.0000 C   0  0  0  0  0  0  0  0  0  0  0  0
    4.4139    0.4713    0.0000 C   0  0  0  0  0  0  0  0  0  0  0  0
    9.1849   -0.0924    0.0000 C   0  0  0  0  0  0  0  0  0  0  0  0
    4.4137    2.0113    0.0000 C   0  0  0  0  0  0  0  0  0  0  0  0
  1 12  1  0  0  0  0
  2 14  1  0  0  0  0
  3 14  1  0  0  0  0
  4 15  1  0  0  0  0
  5 15  1  0  0  0  0
  6 15  1  0  0  0  0
  7 17  1  0  0  0  0
  8 17  1  0  0  0  0
  9 17  1  0  0  0  0
 10 18  1  0  0  0  0
 11 18  2  0  0  0  0
 12 13  1  0  0  0  0
 12 14  1  0  0  0  0
 12 15  1  0  0  0  0
 13 16  1  0  0  0  0
 14 17  1  0  0  0  0
 16 18  1  0  0  0  0
M  END
>  <INPUT>
DTXSID10379355

>  <FOUND_BY>
DSSTox_Substance_Id

>  <DTXSID>
DTXSID10379355

>  <PREFERRED_NAME>
3-(Perfluoro-2-butyl)propanoic acid

>  <CASRN>
239463-95-7

>  <INCHIKEY>
IYOGFVCBZQWDQL-UHFFFAOYNA-N

>  <IUPAC_NAME>
4,5,5,6,6,6-Hexafluoro-4-(trifluoromethyl)hexanoic acid

>  <SMILES>
OC(=O)CCC(F)(C(F)(F)F)C(F)(F)C(F)(F)F

>  <INCHI_STRING>
InChI=1S/C7H5F9O2/c8-4(6(11,12)13,2-1-3(17)18)5(9,10)7(14,15)16/h1-2H2,(H,17,18)

>  <MOLECULAR_FORMULA>
C7H5F9O2

>  <AVERAGE_MASS>
292.101

>  <MONOISOTOPIC_MASS>
292.014582868

>  <MOL_FILE>
MOL_FILE

$$$$

  -INDIGO-02112615072D

 17 16  0  0  0  0  0  0  0  0999 V2000
    7.6449    0.8454    0.0000 F   0  0  0  0  0  0  0  0  0  0  0  0
    9.1849   -1.8219    0.0000 F   0  0  0  0  0  0  0  0  0  0  0  0
    6.3112    0.0754    0.0000 F   0  0  0  0  0  0  0  0  0  0  0  0
    7.8512   -2.5919    0.0000 F   0  0  0  0  0  0  0  0  0  0  0  0
    8.9785    1.6154    0.0000 F   0  0  0  0  0  0  0  0  0  0  0  0
   10.5187   -1.0519    0.0000 F   0  0  0  0  0  0  0  0  0  0  0  0
    3.0800   -0.4881    0.0000 F   0  0  0  0  0  0  0  0  0  0  0  0
    3.6437   -2.5919    0.0000 F   0  0  0  0  0  0  0  0  0  0  0  0
    5.1837    0.0754    0.0000 F   0  0  0  0  0  0  0  0  0  0  0  0
    5.7475   -2.0281    0.0000 O   0  0  0  0  0  0  0  0  0  0  0  0
   12.4161    0.2819    0.0000 O   0  0  0  0  0  0  0  0  0  0  0  0
   11.0824    2.5919    0.0000 O   0  0  0  0  0  0  0  0  0  0  0  0
    8.4149   -0.4881    0.0000 C   0  0  0  0  0  0  0  0  0  0  0  0
    7.0812   -1.2581    0.0000 C   0  0  0  0  0  0  0  0  0  0  0  0
    9.7485    0.2819    0.0000 C   0  0  0  0  0  0  0  0  0  0  0  0
   11.0824    1.0519    0.0000 C   0  0  0  0  0  0  0  0  0  0  0  0
    4.4137   -1.2581    0.0000 C   0  0  0  0  0  0  0  0  0  0  0  0
  1 13  1  0  0  0  0
  2 13  1  0  0  0  0
  3 14  1  0  0  0  0
  4 14  1  0  0  0  0
  5 15  1  0  0  0  0
  6 15  1  0  0  0  0
  7 17  1  0  0  0  0
  8 17  1  0  0  0  0
  9 17  1  0  0  0  0
 10 14  1  0  0  0  0
 10 17  1  0  0  0  0
 11 16  1  0  0  0  0
 12 16  2  0  0  0  0
 13 14  1  0  0  0  0
 13 15  1  0  0  0  0
 15 16  1  0  0  0  0
M  END
>  <INPUT>
DTXSID60500450

>  <FOUND_BY>
DSSTox_Substance_Id

>  <DTXSID>
DTXSID60500450

>  <PREFERRED_NAME>
Perfluoro(4-methoxybutanoic acid)

>  <CASRN>
863090-89-5

>  <INCHIKEY>
CZTBTZZANBJSLY-UHFFFAOYSA-N

>  <IUPAC_NAME>
2,2,3,3,4,4-Hexafluoro-4-(trifluoromethoxy)butanoic acid

>  <SMILES>
OC(=O)C(F)(F)C(F)(F)C(F)(F)OC(F)(F)F

>  <INCHI_STRING>
InChI=1S/C5HF9O3/c6-2(7,1(15)16)3(8,9)4(10,11)17-5(12,13)14/h(H,15,16)

>  <MOLECULAR_FORMULA>
C5HF9O3

>  <AVERAGE_MASS>
280.046

>  <MONOISOTOPIC_MASS>
279.978197359

>  <MOL_FILE>
MOL_FILE

$$$$

  -INDIGO-02112615072D

 24 23  0  0  0  0  0  0  0  0999 V2000
   10.3124    0.9486    0.0000 F   0  0  0  0  0  0  0  0  0  0  0  0
   11.8524   -1.7186    0.0000 F   0  0  0  0  0  0  0  0  0  0  0  0
   13.1861   -0.9486    0.0000 F   0  0  0  0  0  0  0  0  0  0  0  0
   11.6461    1.7186    0.0000 F   0  0  0  0  0  0  0  0  0  0  0  0
    8.9785    0.1786    0.0000 F   0  0  0  0  0  0  0  0  0  0  0  0
   10.5187   -2.4886    0.0000 F   0  0  0  0  0  0  0  0  0  0  0  0
   14.5197   -0.1786    0.0000 F   0  0  0  0  0  0  0  0  0  0  0  0
   12.9797    2.4886    0.0000 F   0  0  0  0  0  0  0  0  0  0  0  0
    7.0812   -1.1551    0.0000 O   0  0  0  0  0  0  0  0  0  0  0  0
   16.4171    1.1551    0.0000 O   0  0  0  0  0  0  0  0  0  0  0  0
    5.7475   -3.4651    0.0000 O   0  0  0  0  0  0  0  0  0  0  0  0
   17.7509    3.4651    0.0000 O   0  0  0  0  0  0  0  0  0  0  0  0
   11.0824   -0.3851    0.0000 C   0  0  0  0  0  0  0  0  0  0  0  0
   12.4161    0.3851    0.0000 C   0  0  0  0  0  0  0  0  0  0  0  0
    9.7485   -1.1551    0.0000 C   0  0  0  0  0  0  0  0  0  0  0  0
   13.7497    1.1551    0.0000 C   0  0  0  0  0  0  0  0  0  0  0  0
    8.4149   -1.9251    0.0000 C   0  0  0  0  0  0  0  0  0  0  0  0
   15.0834    1.9251    0.0000 C   0  0  0  0  0  0  0  0  0  0  0  0
    5.7475   -1.9251    0.0000 C   0  0  0  0  0  0  0  0  0  0  0  0
   17.7509    1.9251    0.0000 C   0  0  0  0  0  0  0  0  0  0  0  0
    4.4137   -1.1551    0.0000 C   0  0  0  0  0  0  0  0  0  0  0  0
   19.0846    1.1551    0.0000 C   0  0  0  0  0  0  0  0  0  0  0  0
    3.0800   -1.9251    0.0000 C   0  0  0  0  0  0  0  0  0  0  0  0
   20.4182    1.9251    0.0000 C   0  0  0  0  0  0  0  0  0  0  0  0
  1 13  1  0  0  0  0
  2 13  1  0  0  0  0
  3 14  1  0  0  0  0
  4 14  1  0  0  0  0
  5 15  1  0  0  0  0
  6 15  1  0  0  0  0
  7 16  1  0  0  0  0
  8 16  1  0  0  0  0
  9 17  1  0  0  0  0
  9 19  1  0  0  0  0
 10 18  1  0  0  0  0
 10 20  1  0  0  0  0
 11 19  2  0  0  0  0
 12 20  2  0  0  0  0
 13 14  1  0  0  0  0
 13 15  1  0  0  0  0
 14 16  1  0  0  0  0
 15 17  1  0  0  0  0
 16 18  1  0  0  0  0
 19 21  1  0  0  0  0
 20 22  1  0  0  0  0
 21 23  2  0  0  0  0
 22 24  2  0  0  0  0
M  END
>  <INPUT>
DTXSID80379721

>  <FOUND_BY>
DSSTox_Substance_Id

>  <DTXSID>
DTXSID80379721

>  <PREFERRED_NAME>
1H,1H,6H,6H-Perfluorohexane-1,6-diol diacrylate

>  <CASRN>
2264-01-9

>  <INCHIKEY>
BWTMTZBMAGYMOD-UHFFFAOYSA-N

>  <IUPAC_NAME>
2,2,3,3,4,4,5,5-Octafluorohexane-1,6-diyl diprop-2-enoate

>  <SMILES>
FC(F)(COC(=O)C=C)C(F)(F)C(F)(F)C(F)(F)COC(=O)C=C

>  <INCHI_STRING>
InChI=1S/C12H10F8O4/c1-3-7(21)23-5-9(13,14)11(17,18)12(19,20)10(15,16)6-24-8(22)4-2/h3-4H,1-2,5-6H2

>  <MOLECULAR_FORMULA>
C12H10F8O4

>  <AVERAGE_MASS>
370.195

>  <MONOISOTOPIC_MASS>
370.045134106

>  <MOL_FILE>
MOL_FILE

$$$$

  -INDIGO-02112615072D

 17 16  0  0  0  0  0  0  0  0999 V2000
    7.6449    1.4368    0.0000 F   0  0  0  0  0  0  0  0  0  0  0  0
    9.1849   -1.2305    0.0000 F   0  0  0  0  0  0  0  0  0  0  0  0
    8.9785    2.2070    0.0000 F   0  0  0  0  0  0  0  0  0  0  0  0
   10.5187   -0.4605    0.0000 F   0  0  0  0  0  0  0  0  0  0  0  0
    6.3112    0.6668    0.0000 F   0  0  0  0  0  0  0  0  0  0  0  0
    7.8512   -2.0005    0.0000 F   0  0  0  0  0  0  0  0  0  0  0  0
   12.4161    2.4132    0.0000 F   0  0  0  0  0  0  0  0  0  0  0  0
   11.8524    0.3095    0.0000 F   0  0  0  0  0  0  0  0  0  0  0  0
   10.3124    2.9770    0.0000 F   0  0  0  0  0  0  0  0  0  0  0  0
    4.4137   -0.6668    0.0000 O   0  0  0  0  0  0  0  0  0  0  0  0
    5.7475   -2.9770    0.0000 O   0  0  0  0  0  0  0  0  0  0  0  0
    8.4149    0.1032    0.0000 C   0  0  0  0  0  0  0  0  0  0  0  0
    9.7485    0.8732    0.0000 C   0  0  0  0  0  0  0  0  0  0  0  0
    7.0812   -0.6668    0.0000 C   0  0  0  0  0  0  0  0  0  0  0  0
   11.0824    1.6432    0.0000 C   0  0  0  0  0  0  0  0  0  0  0  0
    5.7475   -1.4368    0.0000 C   0  0  0  0  0  0  0  0  0  0  0  0
    3.0800   -1.4368    0.0000 C   0  0  0  0  0  0  0  0  0  0  0  0
  1 12  1  0  0  0  0
  2 12  1  0  0  0  0
  3 13  1  0  0  0  0
  4 13  1  0  0  0  0
  5 14  1  0  0  0  0
  6 14  1  0  0  0  0
  7 15  1  0  0  0  0
  8 15  1  0  0  0  0
  9 15  1  0  0  0  0
 10 16  1  0  0  0  0
 10 17  1  0  0  0  0
 11 16  2  0  0  0  0
 12 13  1  0  0  0  0
 12 14  1  0  0  0  0
 13 15  1  0  0  0  0
 14 16  1  0  0  0  0
M  END
>  <INPUT>
DTXSID10335698

>  <FOUND_BY>
DSSTox_Substance_Id

>  <DTXSID>
DTXSID10335698

>  <PREFERRED_NAME>
Methyl perfluoropentanoate

>  <CASRN>
13038-26-1

>  <INCHIKEY>
OSDPSOBLGQUCQX-UHFFFAOYSA-N

>  <IUPAC_NAME>
Methyl nonafluoropentanoate

>  <SMILES>
COC(=O)C(F)(F)C(F)(F)C(F)(F)C(F)(F)F

>  <INCHI_STRING>
InChI=1S/C6H3F9O2/c1-17-2(16)3(7,8)4(9,10)5(11,12)6(13,14)15/h1H3

>  <MOLECULAR_FORMULA>
C6H3F9O2

>  <AVERAGE_MASS>
278.074

>  <MONOISOTOPIC_MASS>
277.998932804

>  <MOL_FILE>
MOL_FILE

$$$$

  -INDIGO-02112615072D

 20 19  0  0  0  0  0  0  0  0999 V2000
    6.0150   -1.9016    0.0000 F   0  0  0  0  0  0  0  0  0  0  0  0
    6.3112    1.7186    0.0000 F   0  0  0  0  0  0  0  0  0  0  0  0
    9.4407   -1.5949    0.0000 F   0  0  0  0  0  0  0  0  0  0  0  0
    8.6212    3.0524    0.0000 F   0  0  0  0  0  0  0  0  0  0  0  0
    9.7080   -0.0782    0.0000 F   0  0  0  0  0  0  0  0  0  0  0  0
    7.9936   -2.1215    0.0000 F   0  0  0  0  0  0  0  0  0  0  0  0
    4.2073   -3.0524    0.0000 F   0  0  0  0  0  0  0  0  0  0  0  0
    5.9672   -2.8986    0.0000 F   0  0  0  0  0  0  0  0  0  0  0  0
    3.4373   -1.7185    0.0000 F   0  0  0  0  0  0  0  0  0  0  0  0
    3.0800    1.1551    0.0000 F   0  0  0  0  0  0  0  0  0  0  0  0
    3.0800   -0.3851    0.0000 F   0  0  0  0  0  0  0  0  0  0  0  0
    5.1837    1.7186    0.0000 F   0  0  0  0  0  0  0  0  0  0  0  0
    9.1849    0.9486    0.0000 F   0  0  0  0  0  0  0  0  0  0  0  0
    7.0812    3.0524    0.0000 F   0  0  0  0  0  0  0  0  0  0  0  0
    5.7475   -0.3851    0.0000 C   0  0  0  0  0  0  0  0  0  0  0  0
    7.0812    0.3851    0.0000 C   0  0  0  0  0  0  0  0  0  0  0  0
    4.9775   -1.7186    0.0000 C   0  0  0  0  0  0  0  0  0  0  0  0
    4.4137    0.3851    0.0000 C   0  0  0  0  0  0  0  0  0  0  0  0
    7.8512    1.7186    0.0000 C   0  0  0  0  0  0  0  0  0  0  0  0
    8.2609   -0.6050    0.0000 C   0  0  0  0  0  0  0  0  0  0  0  0
  1 15  1  0  0  0  0
  2 16  1  0  0  0  0
  3 20  1  0  0  0  0
  4 19  1  0  0  0  0
  5 20  1  0  0  0  0
  6 20  1  0  0  0  0
  7 17  1  0  0  0  0
  8 17  1  0  0  0  0
  9 17  1  0  0  0  0
 10 18  1  0  0  0  0
 11 18  1  0  0  0  0
 12 18  1  0  0  0  0
 13 19  1  0  0  0  0
 14 19  1  0  0  0  0
 15 16  1  0  0  0  0
 15 17  1  0  0  0  0
 15 18  1  0  0  0  0
 16 19  1  0  0  0  0
 16 20  1  0  0  0  0
M  END
>  <INPUT>
DTXSID70334445

>  <FOUND_BY>
DSSTox_Substance_Id

>  <DTXSID>
DTXSID70334445

>  <PREFERRED_NAME>
Perfluoro-2,3-dimethylbutane

>  <CASRN>
354-96-1

>  <INCHIKEY>
NBQYGIPVNCVJJP-UHFFFAOYSA-N

>  <IUPAC_NAME>
1,1,1,2,3,4,4,4-Octafluoro-2,3-bis(trifluoromethyl)butane

>  <SMILES>
FC(F)(F)C(F)(C(F)(F)F)C(F)(C(F)(F)F)C(F)(F)F

>  <INCHI_STRING>
InChI=1S/C6F14/c7-1(3(9,10)11,4(12,13)14)2(8,5(15,16)17)6(18,19)20

>  <MOLECULAR_FORMULA>
C6F14

>  <AVERAGE_MASS>
338.044

>  <MONOISOTOPIC_MASS>
337.977644282

>  <MOL_FILE>
MOL_FILE

$$$$

  -INDIGO-02112615072D

 27 26  0  0  0  0  0  0  0  0999 V2000
    0.4882   -2.4886    0.0000 F   0  0  0  0  0  0  0  0  0  0  0  0
    0.2818    0.9486    0.0000 F   0  0  0  0  0  0  0  0  0  0  0  0
    1.8220   -1.7186    0.0000 F   0  0  0  0  0  0  0  0  0  0  0  0
   -1.6157    2.2826    0.0000 F   0  0  0  0  0  0  0  0  0  0  0  0
   -3.1557   -0.3851    0.0000 F   0  0  0  0  0  0  0  0  0  0  0  0
   -1.8220   -3.8224    0.0000 F   0  0  0  0  0  0  0  0  0  0  0  0
   -2.3857   -1.7186    0.0000 F   0  0  0  0  0  0  0  0  0  0  0  0
   -0.2818   -3.8226    0.0000 F   0  0  0  0  0  0  0  0  0  0  0  0
   -2.9492    3.0526    0.0000 F   0  0  0  0  0  0  0  0  0  0  0  0
   -4.4892    0.3851    0.0000 F   0  0  0  0  0  0  0  0  0  0  0  0
   -6.3867    3.2588    0.0000 F   0  0  0  0  0  0  0  0  0  0  0  0
   -4.2830    3.8226    0.0000 F   0  0  0  0  0  0  0  0  0  0  0  0
   -5.8230    1.1551    0.0000 F   0  0  0  0  0  0  0  0  0  0  0  0
    3.7192   -1.9251    0.0000 F   0  0  0  0  0  0  0  0  0  0  0  0
    4.2830    1.7186    0.0000 F   0  0  0  0  0  0  0  0  0  0  0  0
    5.8230   -0.9486    0.0000 F   0  0  0  0  0  0  0  0  0  0  0  0
    6.3867    1.1551    0.0000 F   0  0  0  0  0  0  0  0  0  0  0  0
   -1.0518    0.1786    0.0000 O   0  0  0  0  0  0  0  0  0  0  0  0
    2.3855    0.3851    0.0000 O   0  0  0  0  0  0  0  0  0  0  0  0
   -0.2818   -1.1551    0.0000 C   0  0  0  0  0  0  0  0  0  0  0  0
    1.0520   -0.3851    0.0000 C   0  0  0  0  0  0  0  0  0  0  0  0
   -2.3855    0.9488    0.0000 C   0  0  0  0  0  0  0  0  0  0  0  0
   -1.0520   -2.4886    0.0000 C   0  0  0  0  0  0  0  0  0  0  0  0
   -3.7191    1.7188    0.0000 C   0  0  0  0  0  0  0  0  0  0  0  0
   -5.0530    2.4888    0.0000 C   0  0  0  0  0  0  0  0  0  0  0  0
    3.7192   -0.3851    0.0000 C   0  0  0  0  0  0  0  0  0  0  0  0
    5.0530    0.3851    0.0000 C   0  0  0  0  0  0  0  0  0  0  0  0
  1 20  1  0  0  0  0
  2 21  1  0  0  0  0
  3 21  1  0  0  0  0
  4 22  1  0  0  0  0
  5 22  1  0  0  0  0
  6 23  1  0  0  0  0
  7 23  1  0  0  0  0
  8 23  1  0  0  0  0
  9 24  1  0  0  0  0
 10 24  1  0  0  0  0
 11 25  1  0  0  0  0
 12 25  1  0  0  0  0
 13 25  1  0  0  0  0
 14 26  1  0  0  0  0
 15 27  1  0  0  0  0
 16 27  1  0  0  0  0
 17 27  1  0  0  0  0
 18 20  1  0  0  0  0
 18 22  1  0  0  0  0
 19 21  1  0  0  0  0
 19 26  1  0  0  0  0
 20 21  1  0  0  0  0
 20 23  1  0  0  0  0
 22 24  1  0  0  0  0
 24 25  1  0  0  0  0
 26 27  1  0  0  0  0
M  END
>  <INPUT>
DTXSID50880192

>  <FOUND_BY>
DSSTox_Substance_Id

>  <DTXSID>
DTXSID50880192

>  <PREFERRED_NAME>
2H-Perfluoro-5-methyl-3,6-dioxanonane

>  <CASRN>
3330-14-1

>  <INCHIKEY>
PYSYKOPZHYNYSZ-UHFFFAOYNA-N

>  <IUPAC_NAME>
1,1,1,2,2,3,3-Heptafluoro-3-{[1,1,1,2,3,3-hexafluoro-3-(1,2,2,2-tetrafluoroethoxy)propan-2-yl]oxy}propane

>  <SMILES>
FC(OC(F)(F)C(F)(OC(F)(F)C(F)(F)C(F)(F)F)C(F)(F)F)C(F)(F)F

>  <INCHI_STRING>
InChI=1S/C8HF17O2/c9-1(2(10,11)12)26-8(24,25)4(15,6(19,20)21)27-7(22,23)3(13,14)5(16,17)18/h1H

>  <MOLECULAR_FORMULA>
C8HF17O2

>  <AVERAGE_MASS>
452.067

>  <MONOISOTOPIC_MASS>
451.970508043

>  <MOL_FILE>
MOL_FILE

$$$$

  -INDIGO-02112615072D

 34 33  0  0  0  0  0  0  0  0999 V2000
    4.6569   -1.4273    0.0000 C   0  0  0  0  0  0  0  0  0  0  0  0
    6.1969   -1.4273    0.0000 C   0  0  0  0  0  0  0  0  0  0  0  0
    7.7369   -1.4273    0.0000 C   0  0  0  0  0  0  0  0  0  0  0  0
    9.2769   -1.4273    0.0000 C   0  0  0  0  0  0  0  0  0  0  0  0
   10.8168   -1.4273    0.0000 C   0  0  0  0  0  0  0  0  0  0  0  0
   12.3568   -1.4273    0.0000 C   0  0  0  0  0  0  0  0  0  0  0  0
   13.8968   -1.4273    0.0000 C   0  0  0  0  0  0  0  0  0  0  0  0
   15.4368   -1.4273    0.0000 C   0  0  0  0  0  0  0  0  0  0  0  0
    3.1169   -1.4273    0.0000 S   0  0  0  0  0  0  0  0  0  0  0  0
    3.1169    0.1127    0.0000 O   0  0  0  0  0  0  0  0  0  0  0  0
    3.1170   -2.9672    0.0000 O   0  0  0  0  0  0  0  0  0  0  0  0
    1.5770   -1.4273    0.0000 N   0  0  0  0  0  0  0  0  0  0  0  0
    0.8070   -0.0936    0.0000 C   0  0  0  0  0  0  0  0  0  0  0  0
   -0.7330   -0.0936    0.0000 C   0  0  0  0  0  0  0  0  0  0  0  0
    4.6569    0.1127    0.0000 F   0  0  0  0  0  0  0  0  0  0  0  0
    4.6570   -2.9672    0.0000 F   0  0  0  0  0  0  0  0  0  0  0  0
    6.1969    0.1127    0.0000 F   0  0  0  0  0  0  0  0  0  0  0  0
    6.1970   -2.9672    0.0000 F   0  0  0  0  0  0  0  0  0  0  0  0
    7.7369    0.1127    0.0000 F   0  0  0  0  0  0  0  0  0  0  0  0
    7.7370   -2.9672    0.0000 F   0  0  0  0  0  0  0  0  0  0  0  0
    9.2769    0.1127    0.0000 F   0  0  0  0  0  0  0  0  0  0  0  0
    9.2770   -2.9672    0.0000 F   0  0  0  0  0  0  0  0  0  0  0  0
   10.8169    0.1127    0.0000 F   0  0  0  0  0  0  0  0  0  0  0  0
   10.8169   -2.9672    0.0000 F   0  0  0  0  0  0  0  0  0  0  0  0
   12.3569    0.1127    0.0000 F   0  0  0  0  0  0  0  0  0  0  0  0
   12.3569   -2.9672    0.0000 F   0  0  0  0  0  0  0  0  0  0  0  0
   13.8969    0.1127    0.0000 F   0  0  0  0  0  0  0  0  0  0  0  0
   13.8969   -2.9672    0.0000 F   0  0  0  0  0  0  0  0  0  0  0  0
   16.9768   -1.4273    0.0000 F   0  0  0  0  0  0  0  0  0  0  0  0
   15.4369    0.1127    0.0000 F   0  0  0  0  0  0  0  0  0  0  0  0
   15.4369   -2.9672    0.0000 F   0  0  0  0  0  0  0  0  0  0  0  0
    0.8070   -2.7610    0.0000 C   0  0  0  0  0  0  0  0  0  0  0  0
   -0.7330   -2.7610    0.0000 C   0  0  0  0  0  0  0  0  0  0  0  0
   -1.5030   -4.0946    0.0000 O   0  0  0  0  0  0  0  0  0  0  0  0
  1  2  1  0  0  0  0
  1  9  1  0  0  0  0
  1 15  1  0  0  0  0
  1 16  1  0  0  0  0
  2  3  1  0  0  0  0
  2 17  1  0  0  0  0
  2 18  1  0  0  0  0
  3  4  1  0  0  0  0
  3 19  1  0  0  0  0
  3 20  1  0  0  0  0
  4  5  1  0  0  0  0
  4 21  1  0  0  0  0
  4 22  1  0  0  0  0
  5  6  1  0  0  0  0
  5 23  1  0  0  0  0
  5 24  1  0  0  0  0
  6  7  1  0  0  0  0
  6 25  1  0  0  0  0
  6 26  1  0  0  0  0
  7  8  1  0  0  0  0
  7 27  1  0  0  0  0
  7 28  1  0  0  0  0
  8 29  1  0  0  0  0
  8 30  1  0  0  0  0
  8 31  1  0  0  0  0
  9 10  2  0  0  0  0
  9 12  1  0  0  0  0
  9 11  2  0  0  0  0
 12 13  1  0  0  0  0
 12 32  1  0  0  0  0
 13 14  1  0  0  0  0
 32 33  1  0  0  0  0
 33 34  1  0  0  0  0
M  END
>  <INPUT>
DTXSID6027426

>  <FOUND_BY>
DSSTox_Substance_Id

>  <DTXSID>
DTXSID6027426

>  <PREFERRED_NAME>
N-Ethyl-N-(2-hydroxyethyl)perfluorooctane sulfonamide

>  <CASRN>
1691-99-2

>  <INCHIKEY>
HUFHNYZNTFSKCT-UHFFFAOYSA-N

>  <IUPAC_NAME>
N-Ethyl-1,1,2,2,3,3,4,4,5,5,6,6,7,7,8,8,8-heptadecafluoro-N-(2-hydroxyethyl)octane-1-sulfonamide

>  <SMILES>
CCN(CCO)S(=O)(=O)C(F)(F)C(F)(F)C(F)(F)C(F)(F)C(F)(F)C(F)(F)C(F)(F)C(F)(F)F

>  <INCHI_STRING>
InChI=1S/C12H10F17NO3S/c1-2-30(3-4-31)34(32,33)12(28,29)10(23,24)8(19,20)6(15,16)5(13,14)7(17,18)9(21,22)11(25,26)27/h31H,2-4H2,1H3


>  <MOLECULAR_FORMULA>
C12H10F17NO3S

>  <AVERAGE_MASS>
571.25

>  <MONOISOTOPIC_MASS>
571.010993131

>  <MOL_FILE>
MOL_FILE

$$$$

  -INDIGO-02112615072D

 15 14  0  0  0  0  0  0  0  0999 V2000
    0.7688    0.8467    0.0000 C   0  0  0  0  0  0  0  0  0  0  0  0
   -0.7712    0.8467    0.0000 O   0  0  0  0  0  0  0  0  0  0  0  0
    1.5388    2.1804    0.0000 C   0  0  0  0  0  0  0  0  0  0  0  0
    1.5388   -0.4869    0.0000 C   0  0  0  0  0  0  0  0  0  0  0  0
   -1.5412   -0.4869    0.0000 C   0  0  0  0  0  0  0  0  0  0  0  0
    2.3088    3.5141    0.0000 F   0  0  0  0  0  0  0  0  0  0  0  0
    0.2051    2.9504    0.0000 F   0  0  0  0  0  0  0  0  0  0  0  0
    2.8725    1.4104    0.0000 F   0  0  0  0  0  0  0  0  0  0  0  0
    0.2051   -1.2569    0.0000 F   0  0  0  0  0  0  0  0  0  0  0  0
    2.8725    0.2831    0.0000 F   0  0  0  0  0  0  0  0  0  0  0  0
    2.3088   -1.8206    0.0000 F   0  0  0  0  0  0  0  0  0  0  0  0
   -3.0812   -0.4869    0.0000 C   0  0  0  0  0  0  0  0  0  0  0  0
   -0.7712   -1.8206    0.0000 O   0  0  0  0  0  0  0  0  0  0  0  0
   -3.8512   -1.8206    0.0000 C   0  0  0  0  0  0  0  0  0  0  0  0
   -3.8512    0.8467    0.0000 F   0  0  0  0  0  0  0  0  0  0  0  0
  1  2  1  0  0  0  0
  1  3  1  0  0  0  0
  1  4  1  0  0  0  0
  2  5  1  0  0  0  0
  3  6  1  0  0  0  0
  3  7  1  0  0  0  0
  3  8  1  0  0  0  0
  4  9  1  0  0  0  0
  4 10  1  0  0  0  0
  4 11  1  0  0  0  0
  5 12  1  0  0  0  0
  5 13  2  0  0  0  0
 12 14  2  0  0  0  0
 12 15  1  0  0  0  0
M  END
>  <INPUT>
DTXSID30622698

>  <FOUND_BY>
DSSTox_Substance_Id

>  <DTXSID>
DTXSID30622698

>  <PREFERRED_NAME>
2H-Perfluoroisopropyl 2-fluoroacrylate

>  <CASRN>
74359-06-1

>  <INCHIKEY>
RNMOMNJMYZWWGF-UHFFFAOYSA-N

>  <IUPAC_NAME>
1,1,1,3,3,3-Hexafluoropropan-2-yl 2-fluoroprop-2-enoate

>  <SMILES>
FC(=C)C(=O)OC(C(F)(F)F)C(F)(F)F

>  <INCHI_STRING>
InChI=1S/C6H3F7O2/c1-2(7)3(14)15-4(5(8,9)10)6(11,12)13/h4H,1H2


>  <MOLECULAR_FORMULA>
C6H3F7O2

>  <AVERAGE_MASS>
240.077

>  <MONOISOTOPIC_MASS>
240.002126478

>  <MOL_FILE>
MOL_FILE

$$$$

  -INDIGO-02112615072D

 13 12  0  0  0  0  0  0  0  0999 V2000
   11.0824    1.6432    0.0000 Br  0  0  0  0  0  0  0  0  0  0  0  0
    7.6449    1.4368    0.0000 F   0  0  0  0  0  0  0  0  0  0  0  0
    9.1849   -1.2305    0.0000 F   0  0  0  0  0  0  0  0  0  0  0  0
    8.9785    2.2070    0.0000 F   0  0  0  0  0  0  0  0  0  0  0  0
   10.5187   -0.4605    0.0000 F   0  0  0  0  0  0  0  0  0  0  0  0
    5.7475    1.6432    0.0000 F   0  0  0  0  0  0  0  0  0  0  0  0
    3.0800    0.1032    0.0000 F   0  0  0  0  0  0  0  0  0  0  0  0
    4.4137   -2.2070    0.0000 F   0  0  0  0  0  0  0  0  0  0  0  0
    7.0812   -0.6668    0.0000 O   0  0  0  0  0  0  0  0  0  0  0  0
    8.4149    0.1032    0.0000 C   0  0  0  0  0  0  0  0  0  0  0  0
    9.7485    0.8732    0.0000 C   0  0  0  0  0  0  0  0  0  0  0  0
    5.7475    0.1032    0.0000 C   0  0  0  0  0  0  0  0  0  0  0  0
    4.4137   -0.6668    0.0000 C   0  0  0  0  0  0  0  0  0  0  0  0
  1 11  1  0  0  0  0
  2 10  1  0  0  0  0
  3 10  1  0  0  0  0
  4 11  1  0  0  0  0
  5 11  1  0  0  0  0
  6 12  1  0  0  0  0
  7 13  1  0  0  0  0
  8 13  1  0  0  0  0
  9 10  1  0  0  0  0
  9 12  1  0  0  0  0
 10 11  1  0  0  0  0
 12 13  2  0  0  0  0
M  END
>  <INPUT>
DTXSID30235040

>  <FOUND_BY>
DSSTox_Substance_Id

>  <DTXSID>
DTXSID30235040

>  <PREFERRED_NAME>
Perfluoro(2-bromoethyl vinyl ether)

>  <CASRN>
85737-06-0

>  <INCHIKEY>
ZPYGRBTUNITHKJ-UHFFFAOYSA-N

>  <IUPAC_NAME>
1-(2-Bromo-1,1,2,2-tetrafluoroethoxy)-1,2,2-trifluoroethene

>  <SMILES>
FC(F)=C(F)OC(F)(F)C(F)(F)Br

>  <INCHI_STRING>
InChI=1S/C4BrF7O/c5-3(9,10)4(11,12)13-2(8)1(6)7

>  <MOLECULAR_FORMULA>
C4BrF7O

>  <AVERAGE_MASS>
276.936

>  <MONOISOTOPIC_MASS>
275.902075

>  <MOL_FILE>
MOL_FILE

$$$$

  -INDIGO-02112615072D

 10  9  0  0  0  0  0  0  0  0999 V2000
    6.3112    0.9486    0.0000 F   0  0  0  0  0  0  0  0  0  0  0  0
    7.8512   -1.7186    0.0000 F   0  0  0  0  0  0  0  0  0  0  0  0
    9.7485    1.1551    0.0000 F   0  0  0  0  0  0  0  0  0  0  0  0
    7.6449    1.7186    0.0000 F   0  0  0  0  0  0  0  0  0  0  0  0
    9.1849   -0.9486    0.0000 F   0  0  0  0  0  0  0  0  0  0  0  0
    4.4137   -0.3851    0.0000 O   0  0  0  0  0  0  0  0  0  0  0  0
    7.0812   -0.3851    0.0000 C   0  0  0  0  0  0  0  0  0  0  0  0
    5.7475   -1.1551    0.0000 C   0  0  0  0  0  0  0  0  0  0  0  0
    8.4149    0.3851    0.0000 C   0  0  0  0  0  0  0  0  0  0  0  0
    3.0800   -1.1551    0.0000 C   0  0  0  0  0  0  0  0  0  0  0  0
  1  7  1  0  0  0  0
  2  7  1  0  0  0  0
  3  9  1  0  0  0  0
  4  9  1  0  0  0  0
  5  9  1  0  0  0  0
  6  8  1  0  0  0  0
  6 10  1  0  0  0  0
  7  8  1  0  0  0  0
  7  9  1  0  0  0  0
M  END
>  <INPUT>
DTXSID20379765

>  <FOUND_BY>
DSSTox_Substance_Id

>  <DTXSID>
DTXSID20379765

>  <PREFERRED_NAME>
Methyl 1H,1H-perfluoropropyl ether

>  <CASRN>
378-16-5

>  <INCHIKEY>
ZYAMKYAPIQPWQR-UHFFFAOYSA-N

>  <IUPAC_NAME>
1,1,1,2,2-Pentafluoro-3-methoxypropane

>  <SMILES>
COCC(F)(F)C(F)(F)F

>  <INCHI_STRING>
InChI=1S/C4H5F5O/c1-10-2-3(5,6)4(7,8)9/h2H2,1H3

>  <MOLECULAR_FORMULA>
C4H5F5O

>  <AVERAGE_MASS>
164.075

>  <MONOISOTOPIC_MASS>
164.026055596

>  <MOL_FILE>
MOL_FILE

$$$$

  -INDIGO-02112615072D

 17 16  0  0  0  0  0  0  0  0999 V2000
    1.5400   -7.7000    0.0000 O   0  0  0  0  0  0  0  0  0  0  0  0
    1.5400   -6.1600    0.0000 S   0  0  0  0  0  0  0  0  0  0  0  0
    3.0800   -6.1600    0.0000 O   0  0  0  0  0  0  0  0  0  0  0  0
    0.0000   -6.1600    0.0000 F   0  0  0  0  0  0  0  0  0  0  0  0
    1.5400   -4.6200    0.0000 C   0  0  0  0  0  0  0  0  0  0  0  0
    3.0800   -4.6200    0.0000 F   0  0  0  0  0  0  0  0  0  0  0  0
    0.0000   -4.6200    0.0000 F   0  0  0  0  0  0  0  0  0  0  0  0
    1.5400   -3.0800    0.0000 C   0  0  0  0  0  0  0  0  0  0  0  0
    3.0800   -3.0800    0.0000 F   0  0  0  0  0  0  0  0  0  0  0  0
    0.0000   -3.0800    0.0000 F   0  0  0  0  0  0  0  0  0  0  0  0
    1.5400   -1.5400    0.0000 C   0  0  0  0  0  0  0  0  0  0  0  0
    3.0800   -1.5400    0.0000 F   0  0  0  0  0  0  0  0  0  0  0  0
    0.0000   -1.5400    0.0000 F   0  0  0  0  0  0  0  0  0  0  0  0
    1.5400    0.0000    0.0000 C   0  0  0  0  0  0  0  0  0  0  0  0
    1.5400    1.5400    0.0000 F   0  0  0  0  0  0  0  0  0  0  0  0
    3.0800    0.0000    0.0000 F   0  0  0  0  0  0  0  0  0  0  0  0
    0.0000    0.0000    0.0000 F   0  0  0  0  0  0  0  0  0  0  0  0
  1  2  2  0  0  0  0
  2  3  2  0  0  0  0
  2  4  1  0  0  0  0
  2  5  1  0  0  0  0
  5  6  1  0  0  0  0
  5  7  1  0  0  0  0
  5  8  1  0  0  0  0
  8  9  1  0  0  0  0
  8 10  1  0  0  0  0
  8 11  1  0  0  0  0
 11 12  1  0  0  0  0
 11 13  1  0  0  0  0
 11 14  1  0  0  0  0
 14 15  1  0  0  0  0
 14 16  1  0  0  0  0
 14 17  1  0  0  0  0
M  END
>  <INPUT>
DTXSID20861913

>  <FOUND_BY>
DSSTox_Substance_Id

>  <DTXSID>
DTXSID20861913

>  <PREFERRED_NAME>
Perfluorobutanesulfonyl fluoride

>  <CASRN>
375-72-4

>  <INCHIKEY>
LUYQYZLEHLTPBH-UHFFFAOYSA-N

>  <IUPAC_NAME>
Nonafluorobutane-1-sulfonyl fluoride

>  <SMILES>
FC(F)(F)C(F)(F)C(F)(F)C(F)(F)S(F)(=O)=O

>  <INCHI_STRING>
InChI=1S/C4F10O2S/c5-1(6,3(9,10)11)2(7,8)4(12,13)17(14,15)16


>  <MOLECULAR_FORMULA>
C4F10O2S

>  <AVERAGE_MASS>
302.09

>  <MONOISOTOPIC_MASS>
301.945932044

>  <MOL_FILE>
MOL_FILE

$$$$

  -INDIGO-02112615072D

 22 21  0  0  0  0  0  0  0  0999 V2000
    9.0338    0.0598    0.0000 F   0  0  0  0  0  0  0  0  0  0  0  0
   10.5738   -2.6075    0.0000 F   0  0  0  0  0  0  0  0  0  0  0  0
   11.9076   -1.8375    0.0000 F   0  0  0  0  0  0  0  0  0  0  0  0
   10.3674    0.8298    0.0000 F   0  0  0  0  0  0  0  0  0  0  0  0
    7.7001   -0.7102    0.0000 F   0  0  0  0  0  0  0  0  0  0  0  0
    9.2401   -3.3775    0.0000 F   0  0  0  0  0  0  0  0  0  0  0  0
   13.2413   -1.0675    0.0000 F   0  0  0  0  0  0  0  0  0  0  0  0
   11.7013    1.5998    0.0000 F   0  0  0  0  0  0  0  0  0  0  0  0
    6.3664   -1.4802    0.0000 F   0  0  0  0  0  0  0  0  0  0  0  0
    7.9064   -4.1475    0.0000 F   0  0  0  0  0  0  0  0  0  0  0  0
   14.5750   -0.2975    0.0000 F   0  0  0  0  0  0  0  0  0  0  0  0
   13.0350    2.3698    0.0000 F   0  0  0  0  0  0  0  0  0  0  0  0
    9.8038   -1.2740    0.0000 C   0  0  0  0  0  0  0  0  0  0  0  0
   11.1374   -0.5038    0.0000 C   0  0  0  0  0  0  0  0  0  0  0  0
    8.4701   -2.0440    0.0000 C   0  0  0  0  0  0  0  0  0  0  0  0
   12.4713    0.2662    0.0000 C   0  0  0  0  0  0  0  0  0  0  0  0
    7.1364   -2.8140    0.0000 C   0  0  0  0  0  0  0  0  0  0  0  0
   13.8050    1.0362    0.0000 C   0  0  0  0  0  0  0  0  0  0  0  0
    5.8026   -3.5840    0.0000 C   0  0  0  0  0  0  0  0  0  0  0  0
   15.1386    1.8062    0.0000 C   0  0  0  0  0  0  0  0  0  0  0  0
    4.4689   -2.8140    0.0000 C   0  0  0  0  0  0  0  0  0  0  0  0
   16.4723    1.0362    0.0000 C   0  0  0  0  0  0  0  0  0  0  0  0
  1 13  1  0  0  0  0
  2 13  1  0  0  0  0
  3 14  1  0  0  0  0
  4 14  1  0  0  0  0
  5 15  1  0  0  0  0
  6 15  1  0  0  0  0
  7 16  1  0  0  0  0
  8 16  1  0  0  0  0
  9 17  1  0  0  0  0
 10 17  1  0  0  0  0
 11 18  1  0  0  0  0
 12 18  1  0  0  0  0
 13 14  1  0  0  0  0
 13 15  1  0  0  0  0
 14 16  1  0  0  0  0
 15 17  1  0  0  0  0
 16 18  1  0  0  0  0
 17 19  1  0  0  0  0
 18 20  1  0  0  0  0
 19 21  2  0  0  0  0
 20 22  2  0  0  0  0
M  END
>  <INPUT>
DTXSID20170895

>  <FOUND_BY>
DSSTox_Substance_Id

>  <DTXSID>
DTXSID20170895

>  <PREFERRED_NAME>
1,6-Divinylperfluorohexane

>  <CASRN>
1800-91-5

>  <INCHIKEY>
PDFSXHZXNZCKNF-UHFFFAOYSA-N

>  <IUPAC_NAME>
3,3,4,4,5,5,6,6,7,7,8,8-Dodecafluorodeca-1,9-diene

>  <SMILES>
FC(F)(C=C)C(F)(F)C(F)(F)C(F)(F)C(F)(F)C(F)(F)C=C

>  <INCHI_STRING>
InChI=1S/C10H6F12/c1-3-5(11,12)7(15,16)9(19,20)10(21,22)8(17,18)6(13,14)4-2/h3-4H,1-2H2


>  <MOLECULAR_FORMULA>
C10H6F12

>  <AVERAGE_MASS>
354.139

>  <MONOISOTOPIC_MASS>
354.027788149

>  <MOL_FILE>
MOL_FILE

$$$$

  -INDIGO-02112615072D

 25 24  0  0  0  0  0  0  0  0999 V2000
    8.1393    0.9194    0.0000 F   0  0  0  0  0  0  0  0  0  0  0  0
   10.8067   -0.6206    0.0000 F   0  0  0  0  0  0  0  0  0  0  0  0
   11.7830    3.0231    0.0000 F   0  0  0  0  0  0  0  0  0  0  0  0
   11.7830   -0.0569    0.0000 F   0  0  0  0  0  0  0  0  0  0  0  0
    7.3693   -0.4143    0.0000 F   0  0  0  0  0  0  0  0  0  0  0  0
   10.0367   -1.9543    0.0000 F   0  0  0  0  0  0  0  0  0  0  0  0
   13.3230    3.0231    0.0000 F   0  0  0  0  0  0  0  0  0  0  0  0
   13.3230   -0.0569    0.0000 F   0  0  0  0  0  0  0  0  0  0  0  0
    6.3930   -0.9780    0.0000 F   0  0  0  0  0  0  0  0  0  0  0  0
    6.3930   -4.0580    0.0000 F   0  0  0  0  0  0  0  0  0  0  0  0
   16.4030    4.1504    0.0000 F   0  0  0  0  0  0  0  0  0  0  0  0
   14.2993    3.5867    0.0000 F   0  0  0  0  0  0  0  0  0  0  0  0
   16.9667    2.0467    0.0000 F   0  0  0  0  0  0  0  0  0  0  0  0
   10.2430    1.4831    0.0000 O   0  0  0  0  0  0  0  0  0  0  0  0
    7.9330   -2.5180    0.0000 O   0  0  0  0  0  0  0  0  0  0  0  0
   14.8630    1.4831    0.0000 O   0  0  0  0  0  0  0  0  0  0  0  0
    4.0830   -3.8517    0.0000 O   0  0  0  0  0  0  0  0  0  0  0  0
    4.0830   -1.1843    0.0000 O   0  0  0  0  0  0  0  0  0  0  0  0
    9.4730    0.1494    0.0000 C   0  0  0  0  0  0  0  0  0  0  0  0
   11.7830    1.4831    0.0000 C   0  0  0  0  0  0  0  0  0  0  0  0
    8.7030   -1.1843    0.0000 C   0  0  0  0  0  0  0  0  0  0  0  0
   13.3230    1.4831    0.0000 C   0  0  0  0  0  0  0  0  0  0  0  0
    6.3930   -2.5180    0.0000 C   0  0  0  0  0  0  0  0  0  0  0  0
   15.6330    2.8167    0.0000 C   0  0  0  0  0  0  0  0  0  0  0  0
    4.8530   -2.5180    0.0000 C   0  0  0  0  0  0  0  0  0  0  0  0
  1 19  1  0  0  0  0
  2 19  1  0  0  0  0
  3 20  1  0  0  0  0
  4 20  1  0  0  0  0
  5 21  1  0  0  0  0
  6 21  1  0  0  0  0
  7 22  1  0  0  0  0
  8 22  1  0  0  0  0
  9 23  1  0  0  0  0
 10 23  1  0  0  0  0
 11 24  1  0  0  0  0
 12 24  1  0  0  0  0
 13 24  1  0  0  0  0
 14 19  1  0  0  0  0
 14 20  1  0  0  0  0
 15 21  1  0  0  0  0
 15 23  1  0  0  0  0
 16 22  1  0  0  0  0
 16 24  1  0  0  0  0
 17 25  1  0  0  0  0
 18 25  2  0  0  0  0
 19 21  1  0  0  0  0
 20 22  1  0  0  0  0
 23 25  1  0  0  0  0
M  END
>  <INPUT>
DTXSID80380837

>  <FOUND_BY>
DSSTox_Substance_Id

>  <DTXSID>
DTXSID80380837

>  <PREFERRED_NAME>
Perfluoro-3,6,9-trioxadecanoic acid

>  <CASRN>
151772-59-7

>  <INCHIKEY>
GNQWOKPKDHCUSB-UHFFFAOYSA-N

>  <IUPAC_NAME>
Difluoro{1,1,2,2-tetrafluoro-2-[1,1,2,2-tetrafluoro-2-(trifluoromethoxy)ethoxy]ethoxy}acetic acid

>  <SMILES>
OC(=O)C(F)(F)OC(F)(F)C(F)(F)OC(F)(F)C(F)(F)OC(F)(F)F

>  <INCHI_STRING>
InChI=1S/C7HF13O5/c8-2(9,1(21)22)23-3(10,11)4(12,13)24-5(14,15)6(16,17)25-7(18,19)20/h(H,21,22)

>  <MOLECULAR_FORMULA>
C7HF13O5

>  <AVERAGE_MASS>
412.059

>  <MONOISOTOPIC_MASS>
411.961639251

>  <MOL_FILE>
MOL_FILE

$$$$

  -INDIGO-02112615072D

 19 18  0  0  0  0  0  0  0  0999 V2000
    7.6449    1.6154    0.0000 F   0  0  0  0  0  0  0  0  0  0  0  0
    9.1849   -1.0519    0.0000 F   0  0  0  0  0  0  0  0  0  0  0  0
    6.3112    0.8454    0.0000 F   0  0  0  0  0  0  0  0  0  0  0  0
    7.8512   -1.8219    0.0000 F   0  0  0  0  0  0  0  0  0  0  0  0
   10.5187   -0.2819    0.0000 F   0  0  0  0  0  0  0  0  0  0  0  0
    8.9785    2.3856    0.0000 F   0  0  0  0  0  0  0  0  0  0  0  0
    4.9775    0.0754    0.0000 F   0  0  0  0  0  0  0  0  0  0  0  0
    6.5175   -2.5919    0.0000 F   0  0  0  0  0  0  0  0  0  0  0  0
    3.0800   -2.7983    0.0000 F   0  0  0  0  0  0  0  0  0  0  0  0
    3.6437   -0.6946    0.0000 F   0  0  0  0  0  0  0  0  0  0  0  0
    5.1837   -3.3619    0.0000 F   0  0  0  0  0  0  0  0  0  0  0  0
   12.4161    1.0519    0.0000 O   0  0  0  0  0  0  0  0  0  0  0  0
    8.4149    0.2819    0.0000 C   0  0  0  0  0  0  0  0  0  0  0  0
    7.0812   -0.4881    0.0000 C   0  0  0  0  0  0  0  0  0  0  0  0
    9.7485    1.0519    0.0000 C   0  0  0  0  0  0  0  0  0  0  0  0
    5.7475   -1.2581    0.0000 C   0  0  0  0  0  0  0  0  0  0  0  0
   11.0824    1.8219    0.0000 C   0  0  0  0  0  0  0  0  0  0  0  0
    4.4137   -2.0281    0.0000 C   0  0  0  0  0  0  0  0  0  0  0  0
   11.0824    3.3619    0.0000 C   0  0  0  0  0  0  0  0  0  0  0  0
  1 13  1  0  0  0  0
  2 13  1  0  0  0  0
  3 14  1  0  0  0  0
  4 14  1  0  0  0  0
  5 15  1  0  0  0  0
  6 15  1  0  0  0  0
  7 16  1  0  0  0  0
  8 16  1  0  0  0  0
  9 18  1  0  0  0  0
 10 18  1  0  0  0  0
 11 18  1  0  0  0  0
 12 17  1  0  0  0  0
 13 14  1  0  0  0  0
 13 15  1  0  0  0  0
 14 16  1  0  0  0  0
 15 17  1  0  0  0  0
 16 18  1  0  0  0  0
 17 19  1  0  0  0  0
M  END
>  <INPUT>
DTXSID80597206

>  <FOUND_BY>
DSSTox_Substance_Id

>  <DTXSID>
DTXSID80597206

>  <PREFERRED_NAME>
1H,1H,1H,2H-Perfluoro-2-heptanol

>  <CASRN>
914637-05-1

>  <INCHIKEY>
QOYNEVFKTZVANM-UHFFFAOYNA-N

>  <IUPAC_NAME>
3,3,4,4,5,5,6,6,7,7,7-Undecafluoroheptan-2-ol

>  <SMILES>
CC(O)C(F)(F)C(F)(F)C(F)(F)C(F)(F)C(F)(F)F

>  <INCHI_STRING>
InChI=1/C7H5F11O/c1-2(19)3(8,9)4(10,11)5(12,13)6(14,15)7(16,17)18/h2,19H,1H3


>  <MOLECULAR_FORMULA>
C7H5F11O

>  <AVERAGE_MASS>
314.098

>  <MONOISOTOPIC_MASS>
314.016474574

>  <MOL_FILE>
MOL_FILE

$$$$

  -INDIGO-02112615072D

 24 24  0  0  0  0  0  0  0  0999 V2000
   -3.6381   -0.1680    0.0000 F   0  0  0  0  0  0  0  0  0  0  0  0
   -3.4678    1.6662    0.0000 F   0  0  0  0  0  0  0  0  0  0  0  0
   -1.8856   -0.5586    0.0000 F   0  0  0  0  0  0  0  0  0  0  0  0
    0.4182   -2.0043    0.0000 F   0  0  0  0  0  0  0  0  0  0  0  0
   -0.3773   -3.4863    0.0000 F   0  0  0  0  0  0  0  0  0  0  0  0
   -1.7947   -3.3302    0.0000 F   0  0  0  0  0  0  0  0  0  0  0  0
   -2.5032   -2.1358    0.0000 F   0  0  0  0  0  0  0  0  0  0  0  0
    2.0275   -1.9819    0.0000 F   0  0  0  0  0  0  0  0  0  0  0  0
    2.7720   -1.2764    0.0000 F   0  0  0  0  0  0  0  0  0  0  0  0
    3.6381    0.2080    0.0000 F   0  0  0  0  0  0  0  0  0  0  0  0
    3.5709    1.3720    0.0000 F   0  0  0  0  0  0  0  0  0  0  0  0
    2.6934    2.8816    0.0000 F   0  0  0  0  0  0  0  0  0  0  0  0
    1.7017    3.4863    0.0000 F   0  0  0  0  0  0  0  0  0  0  0  0
   -0.0194    3.4592    0.0000 F   0  0  0  0  0  0  0  0  0  0  0  0
   -1.0199    3.1288    0.0000 F   0  0  0  0  0  0  0  0  0  0  0  0
   -0.7822    0.6437    0.0000 C   0  0  0  0  0  0  0  0  0  0  0  0
   -0.0928   -0.7333    0.0000 C   0  0  0  0  0  0  0  0  0  0  0  0
    1.4597   -0.5644    0.0000 C   0  0  0  0  0  0  0  0  0  0  0  0
    2.2276    0.7223    0.0000 C   0  0  0  0  0  0  0  0  0  0  0  0
    1.4857    2.0075    0.0000 C   0  0  0  0  0  0  0  0  0  0  0  0
   -0.0101    1.9814    0.0000 C   0  0  0  0  0  0  0  0  0  0  0  0
   -1.7019    1.6744    0.0000 F   0  0  0  0  0  0  0  0  0  0  0  0
   -2.3889    0.6598    0.0000 C   0  0  0  0  0  0  0  0  0  0  0  0
   -0.9820   -2.0883    0.0000 C   0  0  0  0  0  0  0  0  0  0  0  0
 17 16  1  0  0  0  0
 21 16  1  0  0  0  0
 22 16  1  0  0  0  0
 23 16  1  0  0  0  0
 18 17  1  0  0  0  0
 24 17  1  0  0  0  0
 19 18  1  0  0  0  0
 20 19  1  0  0  0  0
 21 20  1  0  0  0  0
 15 21  1  0  0  0  0
 14 21  1  0  0  0  0
 13 20  1  0  0  0  0
 12 20  1  0  0  0  0
 11 19  1  0  0  0  0
 10 19  1  0  0  0  0
  9 18  1  0  0  0  0
  8 18  1  0  0  0  0
  7 24  1  0  0  0  0
  6 24  1  0  0  0  0
  5 24  1  0  0  0  0
  4 17  1  0  0  0  0
  3 23  1  0  0  0  0
  2 23  1  0  0  0  0
  1 23  1  0  0  0  0
M  END
>  <INPUT>
DTXSID20870500

>  <FOUND_BY>
DSSTox_Substance_Id

>  <DTXSID>
DTXSID20870500

>  <PREFERRED_NAME>
Perfluoro-1,2-dimethylcyclohexane

>  <CASRN>
306-98-9

>  <INCHIKEY>
GHBZJUJZNRLHBI-UHFFFAOYNA-N

>  <IUPAC_NAME>
1,1,2,2,3,3,4,4,5,6-Decafluoro-5,6-bis(trifluoromethyl)cyclohexane

>  <SMILES>
FC(F)(F)C1(F)C(F)(F)C(F)(F)C(F)(F)C(F)(F)C1(F)C(F)(F)F

>  <INCHI_STRING>
InChI=1S/C8F16/c9-1(7(19,20)21)2(10,8(22,23)24)4(13,14)6(17,18)5(15,16)3(1,11)12

>  <MOLECULAR_FORMULA>
C8F16

>  <AVERAGE_MASS>
400.062

>  <MONOISOTOPIC_MASS>
399.974450608

>  <MOL_FILE>
MOL_FILE

$$$$

  -INDIGO-02112615072D

 17 16  0  0  0  0  0  0  0  0999 V2000
    6.3112    1.3337    0.0000 F   0  0  0  0  0  0  0  0  0  0  0  0
    7.8512   -1.3337    0.0000 F   0  0  0  0  0  0  0  0  0  0  0  0
    4.9775    0.5637    0.0000 F   0  0  0  0  0  0  0  0  0  0  0  0
    6.5175   -2.1037    0.0000 F   0  0  0  0  0  0  0  0  0  0  0  0
    7.6449    2.1037    0.0000 F   0  0  0  0  0  0  0  0  0  0  0  0
    9.1849   -0.5637    0.0000 F   0  0  0  0  0  0  0  0  0  0  0  0
    3.0800   -0.7700    0.0000 F   0  0  0  0  0  0  0  0  0  0  0  0
    4.4137   -3.0800    0.0000 F   0  0  0  0  0  0  0  0  0  0  0  0
   11.0824    0.7700    0.0000 O   0  0  0  0  0  0  0  0  0  0  0  0
    9.7485    3.0800    0.0000 O   0  0  0  0  0  0  0  0  0  0  0  0
    7.0812    0.0000    0.0000 C   0  0  0  0  0  0  0  0  0  0  0  0
    5.7475   -0.7700    0.0000 C   0  0  0  0  0  0  0  0  0  0  0  0
    8.4149    0.7700    0.0000 C   0  0  0  0  0  0  0  0  0  0  0  0
    4.4137   -1.5400    0.0000 C   0  0  0  0  0  0  0  0  0  0  0  0
    9.7485    1.5400    0.0000 C   0  0  0  0  0  0  0  0  0  0  0  0
   12.4161    1.5400    0.0000 C   0  0  0  0  0  0  0  0  0  0  0  0
   13.7497    0.7700    0.0000 C   0  0  0  0  0  0  0  0  0  0  0  0
  1 11  1  0  0  0  0
  2 11  1  0  0  0  0
  3 12  1  0  0  0  0
  4 12  1  0  0  0  0
  5 13  1  0  0  0  0
  6 13  1  0  0  0  0
  7 14  1  0  0  0  0
  8 14  1  0  0  0  0
  9 15  1  0  0  0  0
  9 16  1  0  0  0  0
 10 15  2  0  0  0  0
 11 12  1  0  0  0  0
 11 13  1  0  0  0  0
 12 14  1  0  0  0  0
 13 15  1  0  0  0  0
 16 17  1  0  0  0  0
M  END
>  <INPUT>
DTXSID20371926

>  <FOUND_BY>
DSSTox_Substance_Id

>  <DTXSID>
DTXSID20371926

>  <PREFERRED_NAME>
Ethyl 5H-octafluoropentanoate

>  <CASRN>
2795-50-8

>  <INCHIKEY>
HXWMNJVBQLBDGW-UHFFFAOYSA-N

>  <IUPAC_NAME>
Ethyl 2,2,3,3,4,4,5,5-octafluoropentanoate

>  <SMILES>
CCOC(=O)C(F)(F)C(F)(F)C(F)(F)C(F)F

>  <INCHI_STRING>
InChI=1S/C7H6F8O2/c1-2-17-4(16)6(12,13)7(14,15)5(10,11)3(8)9/h3H,2H2,1H3

>  <MOLECULAR_FORMULA>
C7H6F8O2

>  <AVERAGE_MASS>
274.11

>  <MONOISOTOPIC_MASS>
274.024004737

>  <MOL_FILE>
MOL_FILE

$$$$

  -INDIGO-02112615072D

 25 24  0  0  0  0  0  0  0  0999 V2000
   -4.1390   -4.6805    0.0000 O   0  0  0  0  0  0  0  0  0  0  0  0
   -2.5990   -4.6805    0.0000 C   0  0  0  0  0  0  0  0  0  0  0  0
   -1.8289   -6.0160    0.0000 O   0  0  0  0  0  0  0  0  0  0  0  0
   -1.8289   -3.3449    0.0000 C   0  0  0  0  0  0  0  0  0  0  0  0
   -0.4812   -4.1150    0.0000 F   0  0  0  0  0  0  0  0  0  0  0  0
   -3.1645   -2.5750    0.0000 F   0  0  0  0  0  0  0  0  0  0  0  0
   -1.0467   -2.0093    0.0000 C   0  0  0  0  0  0  0  0  0  0  0  0
    0.2887   -2.7794    0.0000 F   0  0  0  0  0  0  0  0  0  0  0  0
   -2.3944   -1.2273    0.0000 Cl  0  0  0  0  0  0  0  0  0  0  0  0
   -0.2768   -0.6738    0.0000 C   0  0  0  0  0  0  0  0  0  0  0  0
    1.0588   -1.4439    0.0000 F   0  0  0  0  0  0  0  0  0  0  0  0
   -1.6123    0.1083    0.0000 F   0  0  0  0  0  0  0  0  0  0  0  0
    0.4933    0.6738    0.0000 C   0  0  0  0  0  0  0  0  0  0  0  0
    1.8289   -0.1083    0.0000 F   0  0  0  0  0  0  0  0  0  0  0  0
   -0.8422    1.4439    0.0000 Cl  0  0  0  0  0  0  0  0  0  0  0  0
    1.2634    2.0093    0.0000 C   0  0  0  0  0  0  0  0  0  0  0  0
    2.5990    1.2273    0.0000 F   0  0  0  0  0  0  0  0  0  0  0  0
   -0.0721    2.7794    0.0000 F   0  0  0  0  0  0  0  0  0  0  0  0
    2.0333    3.3449    0.0000 C   0  0  0  0  0  0  0  0  0  0  0  0
    3.3691    2.5748    0.0000 F   0  0  0  0  0  0  0  0  0  0  0  0
    0.6980    4.1150    0.0000 Cl  0  0  0  0  0  0  0  0  0  0  0  0
    2.8034    4.6805    0.0000 C   0  0  0  0  0  0  0  0  0  0  0  0
    4.1390    3.9104    0.0000 F   0  0  0  0  0  0  0  0  0  0  0  0
    1.4679    5.4505    0.0000 F   0  0  0  0  0  0  0  0  0  0  0  0
    3.5735    6.0160    0.0000 Cl  0  0  0  0  0  0  0  0  0  0  0  0
  1  2  1  0  0  0  0
  2  3  2  0  0  0  0
  2  4  1  0  0  0  0
  4  5  1  0  0  0  0
  4  6  1  0  0  0  0
  4  7  1  0  0  0  0
  7  8  1  0  0  0  0
  7  9  1  0  0  0  0
  7 10  1  0  0  0  0
 10 11  1  0  0  0  0
 10 12  1  0  0  0  0
 10 13  1  0  0  0  0
 13 14  1  0  0  0  0
 13 15  1  0  0  0  0
 13 16  1  0  0  0  0
 16 17  1  0  0  0  0
 16 18  1  0  0  0  0
 16 19  1  0  0  0  0
 19 20  1  0  0  0  0
 19 21  1  0  0  0  0
 19 22  1  0  0  0  0
 22 23  1  0  0  0  0
 22 24  1  0  0  0  0
 22 25  1  0  0  0  0
M  END
>  <INPUT>
DTXSID00880187

>  <FOUND_BY>
DSSTox_Substance_Id

>  <DTXSID>
DTXSID00880187

>  <PREFERRED_NAME>
3,5,7,8-Tetrachloroperfluorooctanoic acid

>  <CASRN>
2923-68-4

>  <INCHIKEY>
YSPJDMQUTGFRFK-UHFFFAOYNA-N

>  <IUPAC_NAME>
3,5,7,8-Tetrachloro-2,2,3,4,4,5,6,6,7,8,8-undecafluorooctanoic acid

>  <SMILES>
OC(=O)C(F)(F)C(F)(Cl)C(F)(F)C(F)(Cl)C(F)(F)C(F)(Cl)C(F)(F)Cl

>  <INCHI_STRING>
InChI=1S/C8HCl4F11O2/c9-3(15,2(13,14)1(24)25)6(18,19)4(10,16)7(20,21)5(11,17)8(12,22)23/h(H,24,25)

>  <MOLECULAR_FORMULA>
C8HCl4F11O2

>  <AVERAGE_MASS>
479.88

>  <MONOISOTOPIC_MASS>
477.8554999

>  <MOL_FILE>
MOL_FILE

$$$$

  -INDIGO-02112615072D

 21 20  0  0  0  0  0  0  0  0999 V2000
    6.3112    0.8454    0.0000 F   0  0  0  0  0  0  0  0  0  0  0  0
    7.8512   -1.8219    0.0000 F   0  0  0  0  0  0  0  0  0  0  0  0
    7.6449    1.6154    0.0000 F   0  0  0  0  0  0  0  0  0  0  0  0
    9.1849   -1.0519    0.0000 F   0  0  0  0  0  0  0  0  0  0  0  0
    4.9775    0.0754    0.0000 F   0  0  0  0  0  0  0  0  0  0  0  0
    6.5175   -2.5919    0.0000 F   0  0  0  0  0  0  0  0  0  0  0  0
   10.5187   -0.2819    0.0000 F   0  0  0  0  0  0  0  0  0  0  0  0
    8.9785    2.3856    0.0000 F   0  0  0  0  0  0  0  0  0  0  0  0
    3.0800   -2.7983    0.0000 F   0  0  0  0  0  0  0  0  0  0  0  0
    3.6437   -0.6946    0.0000 F   0  0  0  0  0  0  0  0  0  0  0  0
    5.1837   -3.3619    0.0000 F   0  0  0  0  0  0  0  0  0  0  0  0
   11.0824    3.3619    0.0000 F   0  0  0  0  0  0  0  0  0  0  0  0
   13.7497    1.8219    0.0000 F   0  0  0  0  0  0  0  0  0  0  0  0
   12.4161   -0.4881    0.0000 F   0  0  0  0  0  0  0  0  0  0  0  0
    7.0812   -0.4881    0.0000 C   0  0  0  0  0  0  0  0  0  0  0  0
    8.4149    0.2819    0.0000 C   0  0  0  0  0  0  0  0  0  0  0  0
    5.7475   -1.2581    0.0000 C   0  0  0  0  0  0  0  0  0  0  0  0
    9.7485    1.0519    0.0000 C   0  0  0  0  0  0  0  0  0  0  0  0
    4.4137   -2.0281    0.0000 C   0  0  0  0  0  0  0  0  0  0  0  0
   11.0824    1.8219    0.0000 C   0  0  0  0  0  0  0  0  0  0  0  0
   12.4161    1.0519    0.0000 C   0  0  0  0  0  0  0  0  0  0  0  0
  1 15  1  0  0  0  0
  2 15  1  0  0  0  0
  3 16  1  0  0  0  0
  4 16  1  0  0  0  0
  5 17  1  0  0  0  0
  6 17  1  0  0  0  0
  7 18  1  0  0  0  0
  8 18  1  0  0  0  0
  9 19  1  0  0  0  0
 10 19  1  0  0  0  0
 11 19  1  0  0  0  0
 12 20  1  0  0  0  0
 13 21  1  0  0  0  0
 14 21  1  0  0  0  0
 15 16  1  0  0  0  0
 15 17  1  0  0  0  0
 16 18  1  0  0  0  0
 17 19  1  0  0  0  0
 18 20  1  0  0  0  0
 20 21  2  0  0  0  0
M  END
>  <INPUT>
DTXSID00188998

>  <FOUND_BY>
DSSTox_Substance_Id

>  <DTXSID>
DTXSID00188998

>  <PREFERRED_NAME>
Perfluorohept-1-ene

>  <CASRN>
355-63-5

>  <INCHIKEY>
CDAVUOSPHHTNBU-UHFFFAOYSA-N

>  <IUPAC_NAME>
1,1,2,3,3,4,4,5,5,6,6,7,7,7-Tetradecafluorohept-1-ene

>  <SMILES>
FC(F)=C(F)C(F)(F)C(F)(F)C(F)(F)C(F)(F)C(F)(F)F

>  <INCHI_STRING>
InChI=1S/C7F14/c8-1(2(9)10)3(11,12)4(13,14)5(15,16)6(17,18)7(19,20)21

>  <MOLECULAR_FORMULA>
C7F14

>  <AVERAGE_MASS>
350.055

>  <MONOISOTOPIC_MASS>
349.977644282

>  <MOL_FILE>
MOL_FILE

$$$$

  -INDIGO-02112615072D

 25 24  0  0  0  0  0  0  0  0999 V2000
   -2.3265   -0.6753    0.0000 O   0  0  0  0  0  0  0  0  0  0  0  0
   -2.3265   -2.2153    0.0000 C   0  0  0  0  0  0  0  0  0  0  0  0
   -0.9928   -2.9854    0.0000 O   0  0  0  0  0  0  0  0  0  0  0  0
    0.3409   -2.2154    0.0000 C   0  0  0  0  0  0  0  0  0  0  0  0
    0.3409   -0.6753    0.0000 O   0  0  0  0  0  0  0  0  0  0  0  0
    1.6746   -2.9854    0.0000 C   0  0  0  0  0  0  0  0  0  0  0  0
    2.4446   -1.6517    0.0000 F   0  0  0  0  0  0  0  0  0  0  0  0
    0.9045   -4.3191    0.0000 F   0  0  0  0  0  0  0  0  0  0  0  0
    3.0082   -3.7553    0.0000 C   0  0  0  0  0  0  0  0  0  0  0  0
    3.7782   -2.4216    0.0000 F   0  0  0  0  0  0  0  0  0  0  0  0
    2.2382   -5.0890    0.0000 F   0  0  0  0  0  0  0  0  0  0  0  0
    4.3419   -4.5253    0.0000 C   0  0  0  0  0  0  0  0  0  0  0  0
    5.6756   -5.2953    0.0000 F   0  0  0  0  0  0  0  0  0  0  0  0
    5.1119   -3.1916    0.0000 F   0  0  0  0  0  0  0  0  0  0  0  0
    3.5719   -5.8590    0.0000 F   0  0  0  0  0  0  0  0  0  0  0  0
   -3.6602   -2.9853    0.0000 C   0  0  0  0  0  0  0  0  0  0  0  0
   -4.4302   -1.6517    0.0000 F   0  0  0  0  0  0  0  0  0  0  0  0
   -2.8902   -4.3190    0.0000 F   0  0  0  0  0  0  0  0  0  0  0  0
   -4.9939   -3.7553    0.0000 C   0  0  0  0  0  0  0  0  0  0  0  0
   -5.7639   -2.4217    0.0000 F   0  0  0  0  0  0  0  0  0  0  0  0
   -4.2239   -5.0890    0.0000 F   0  0  0  0  0  0  0  0  0  0  0  0
   -6.3275   -4.5253    0.0000 C   0  0  0  0  0  0  0  0  0  0  0  0
   -7.6612   -5.2953    0.0000 F   0  0  0  0  0  0  0  0  0  0  0  0
   -7.0975   -3.1917    0.0000 F   0  0  0  0  0  0  0  0  0  0  0  0
   -5.5575   -5.8590    0.0000 F   0  0  0  0  0  0  0  0  0  0  0  0
  1  2  2  0  0  0  0
  2  3  1  0  0  0  0
  3  4  1  0  0  0  0
  4  5  2  0  0  0  0
  4  6  1  0  0  0  0
  6  7  1  0  0  0  0
  6  8  1  0  0  0  0
  6  9  1  0  0  0  0
  9 10  1  0  0  0  0
  9 11  1  0  0  0  0
  9 12  1  0  0  0  0
 12 13  1  0  0  0  0
 12 14  1  0  0  0  0
 12 15  1  0  0  0  0
  2 16  1  0  0  0  0
 16 17  1  0  0  0  0
 16 18  1  0  0  0  0
 16 19  1  0  0  0  0
 19 20  1  0  0  0  0
 19 21  1  0  0  0  0
 19 22  1  0  0  0  0
 22 23  1  0  0  0  0
 22 24  1  0  0  0  0
 22 25  1  0  0  0  0
M  END
>  <INPUT>
DTXSID10861881

>  <FOUND_BY>
DSSTox_Substance_Id

>  <DTXSID>
DTXSID10861881

>  <PREFERRED_NAME>
Perfluorobutanoic anhydride

>  <CASRN>
336-59-4

>  <INCHIKEY>
UFFSXJKVKBQEHC-UHFFFAOYSA-N

>  <IUPAC_NAME>
Heptafluorobutanoic anhydride

>  <SMILES>
FC(F)(F)C(F)(F)C(F)(F)C(=O)OC(=O)C(F)(F)C(F)(F)C(F)(F)F

>  <INCHI_STRING>
InChI=1S/C8F14O3/c9-3(10,5(13,14)7(17,18)19)1(23)25-2(24)4(11,12)6(15,16)8(20,21)22


>  <MOLECULAR_FORMULA>
C8F14O3

>  <AVERAGE_MASS>
410.063

>  <MONOISOTOPIC_MASS>
409.962388142

>  <MOL_FILE>
MOL_FILE

$$$$

  -INDIGO-02112615072D

 13 12  0  0  0  0  0  0  0  0999 V2000
    4.9775    0.8454    0.0000 F   0  0  0  0  0  0  0  0  0  0  0  0
    6.5175   -1.8219    0.0000 F   0  0  0  0  0  0  0  0  0  0  0  0
    6.3112    1.6154    0.0000 F   0  0  0  0  0  0  0  0  0  0  0  0
    7.8512   -1.0519    0.0000 F   0  0  0  0  0  0  0  0  0  0  0  0
    3.0800   -2.0281    0.0000 F   0  0  0  0  0  0  0  0  0  0  0  0
    3.6437    0.0754    0.0000 F   0  0  0  0  0  0  0  0  0  0  0  0
    5.1837   -2.5919    0.0000 F   0  0  0  0  0  0  0  0  0  0  0  0
    8.4149    2.5919    0.0000 O   0  0  0  0  0  0  0  0  0  0  0  0
    5.7475   -0.4881    0.0000 C   0  0  0  0  0  0  0  0  0  0  0  0
    7.0812    0.2819    0.0000 C   0  0  0  0  0  0  0  0  0  0  0  0
    4.4137   -1.2581    0.0000 C   0  0  0  0  0  0  0  0  0  0  0  0
    8.4149    1.0519    0.0000 C   0  0  0  0  0  0  0  0  0  0  0  0
    9.7485    0.2819    0.0000 C   0  0  0  0  0  0  0  0  0  0  0  0
  1  9  1  0  0  0  0
  2  9  1  0  0  0  0
  3 10  1  0  0  0  0
  4 10  1  0  0  0  0
  5 11  1  0  0  0  0
  6 11  1  0  0  0  0
  7 11  1  0  0  0  0
  8 12  2  0  0  0  0
  9 10  1  0  0  0  0
  9 11  1  0  0  0  0
 10 12  1  0  0  0  0
 12 13  1  0  0  0  0
M  END
>  <INPUT>
DTXSID00188993

>  <FOUND_BY>
DSSTox_Substance_Id

>  <DTXSID>
DTXSID00188993

>  <PREFERRED_NAME>
Methyl heptafluoropropylketone

>  <CASRN>
355-17-9

>  <INCHIKEY>
XJYXROGTQYHLTH-UHFFFAOYSA-N

>  <IUPAC_NAME>
3,3,4,4,5,5,5-Heptafluoropentan-2-one

>  <SMILES>
CC(=O)C(F)(F)C(F)(F)C(F)(F)F

>  <INCHI_STRING>
InChI=1S/C5H3F7O/c1-2(13)3(6,7)4(8,9)5(10,11)12/h1H3

>  <MOLECULAR_FORMULA>
C5H3F7O

>  <AVERAGE_MASS>
212.067

>  <MONOISOTOPIC_MASS>
212.007211858

>  <MOL_FILE>
MOL_FILE

$$$$

  -INDIGO-02112615072D

 21 20  0  0  0  0  0  0  0  0999 V2000
    8.4717    0.9486    0.0000 F   0  0  0  0  0  0  0  0  0  0  0  0
   10.0117   -1.7186    0.0000 F   0  0  0  0  0  0  0  0  0  0  0  0
    9.8056    1.7186    0.0000 F   0  0  0  0  0  0  0  0  0  0  0  0
   11.3456   -0.9486    0.0000 F   0  0  0  0  0  0  0  0  0  0  0  0
    7.1381    0.1786    0.0000 F   0  0  0  0  0  0  0  0  0  0  0  0
    8.6781   -2.4886    0.0000 F   0  0  0  0  0  0  0  0  0  0  0  0
   12.6793   -0.1786    0.0000 F   0  0  0  0  0  0  0  0  0  0  0  0
   11.1391    2.4886    0.0000 F   0  0  0  0  0  0  0  0  0  0  0  0
    5.8044   -0.5914    0.0000 F   0  0  0  0  0  0  0  0  0  0  0  0
    7.3444   -3.2586    0.0000 F   0  0  0  0  0  0  0  0  0  0  0  0
   14.5766    2.6951    0.0000 F   0  0  0  0  0  0  0  0  0  0  0  0
   14.0129    0.5914    0.0000 F   0  0  0  0  0  0  0  0  0  0  0  0
   12.4729    3.2586    0.0000 F   0  0  0  0  0  0  0  0  0  0  0  0
    3.9069   -1.9251    0.0000 O   0  0  0  0  0  0  0  0  0  0  0  0
    9.2417   -0.3851    0.0000 C   0  0  0  0  0  0  0  0  0  0  0  0
   10.5756    0.3851    0.0000 C   0  0  0  0  0  0  0  0  0  0  0  0
    7.9081   -1.1551    0.0000 C   0  0  0  0  0  0  0  0  0  0  0  0
   11.9091    1.1551    0.0000 C   0  0  0  0  0  0  0  0  0  0  0  0
    6.5744   -1.9251    0.0000 C   0  0  0  0  0  0  0  0  0  0  0  0
   13.2429    1.9251    0.0000 C   0  0  0  0  0  0  0  0  0  0  0  0
    5.2407   -2.6951    0.0000 C   0  0  0  0  0  0  0  0  0  0  0  0
  1 15  1  0  0  0  0
  2 15  1  0  0  0  0
  3 16  1  0  0  0  0
  4 16  1  0  0  0  0
  5 17  1  0  0  0  0
  6 17  1  0  0  0  0
  7 18  1  0  0  0  0
  8 18  1  0  0  0  0
  9 19  1  0  0  0  0
 10 19  1  0  0  0  0
 11 20  1  0  0  0  0
 12 20  1  0  0  0  0
 13 20  1  0  0  0  0
 14 21  1  0  0  0  0
 15 16  1  0  0  0  0
 15 17  1  0  0  0  0
 16 18  1  0  0  0  0
 17 19  1  0  0  0  0
 18 20  1  0  0  0  0
 19 21  1  0  0  0  0
M  END
>  <INPUT>
DTXSID00190950

>  <FOUND_BY>
DSSTox_Substance_Id

>  <DTXSID>
DTXSID00190950

>  <PREFERRED_NAME>
6:1 Fluorotelomer alcohol

>  <CASRN>
375-82-6

>  <INCHIKEY>
STLNAVFVCIRZLL-UHFFFAOYSA-N

>  <IUPAC_NAME>
2,2,3,3,4,4,5,5,6,6,7,7,7-Tridecafluoroheptan-1-ol

>  <SMILES>
OCC(F)(F)C(F)(F)C(F)(F)C(F)(F)C(F)(F)C(F)(F)F

>  <INCHI_STRING>
InChI=1S/C7H3F13O/c8-2(9,1-21)3(10,11)4(12,13)5(14,15)6(16,17)7(18,19)20/h21H,1H2

>  <MOLECULAR_FORMULA>
C7H3F13O

>  <AVERAGE_MASS>
350.079

>  <MONOISOTOPIC_MASS>
349.997630836

>  <MOL_FILE>
MOL_FILE

$$$$

  -INDIGO-02112615072D

 27 26  0  0  0  0  0  0  0  0999 V2000
    9.8056    1.3337    0.0000 F   0  0  0  0  0  0  0  0  0  0  0  0
   11.3456   -1.3337    0.0000 F   0  0  0  0  0  0  0  0  0  0  0  0
   11.1391    2.1037    0.0000 F   0  0  0  0  0  0  0  0  0  0  0  0
   12.6793   -0.5637    0.0000 F   0  0  0  0  0  0  0  0  0  0  0  0
    8.4717    0.5637    0.0000 F   0  0  0  0  0  0  0  0  0  0  0  0
   10.0117   -2.1037    0.0000 F   0  0  0  0  0  0  0  0  0  0  0  0
   14.0129    0.2065    0.0000 F   0  0  0  0  0  0  0  0  0  0  0  0
   12.4729    2.8737    0.0000 F   0  0  0  0  0  0  0  0  0  0  0  0
    7.1381   -0.2065    0.0000 F   0  0  0  0  0  0  0  0  0  0  0  0
    8.6781   -2.8737    0.0000 F   0  0  0  0  0  0  0  0  0  0  0  0
   15.3466    0.9765    0.0000 F   0  0  0  0  0  0  0  0  0  0  0  0
   13.8066    3.6437    0.0000 F   0  0  0  0  0  0  0  0  0  0  0  0
    5.8044   -0.9765    0.0000 F   0  0  0  0  0  0  0  0  0  0  0  0
    7.3444   -3.6437    0.0000 F   0  0  0  0  0  0  0  0  0  0  0  0
   17.2441    2.3100    0.0000 O   0  0  0  0  0  0  0  0  0  0  0  0
    3.9069   -2.3100    0.0000 O   0  0  0  0  0  0  0  0  0  0  0  0
    5.2407   -4.6202    0.0000 O   0  0  0  0  0  0  0  0  0  0  0  0
   15.9103    4.6202    0.0000 O   0  0  0  0  0  0  0  0  0  0  0  0
   10.5756    0.0000    0.0000 C   0  0  0  0  0  0  0  0  0  0  0  0
   11.9091    0.7700    0.0000 C   0  0  0  0  0  0  0  0  0  0  0  0
    9.2417   -0.7700    0.0000 C   0  0  0  0  0  0  0  0  0  0  0  0
   13.2429    1.5400    0.0000 C   0  0  0  0  0  0  0  0  0  0  0  0
    7.9081   -1.5400    0.0000 C   0  0  0  0  0  0  0  0  0  0  0  0
   14.5766    2.3100    0.0000 C   0  0  0  0  0  0  0  0  0  0  0  0
    6.5744   -2.3100    0.0000 C   0  0  0  0  0  0  0  0  0  0  0  0
   15.9103    3.0800    0.0000 C   0  0  0  0  0  0  0  0  0  0  0  0
    5.2407   -3.0800    0.0000 C   0  0  0  0  0  0  0  0  0  0  0  0
  1 19  1  0  0  0  0
  2 19  1  0  0  0  0
  3 20  1  0  0  0  0
  4 20  1  0  0  0  0
  5 21  1  0  0  0  0
  6 21  1  0  0  0  0
  7 22  1  0  0  0  0
  8 22  1  0  0  0  0
  9 23  1  0  0  0  0
 10 23  1  0  0  0  0
 11 24  1  0  0  0  0
 12 24  1  0  0  0  0
 13 25  1  0  0  0  0
 14 25  1  0  0  0  0
 15 26  1  0  0  0  0
 16 27  1  0  0  0  0
 17 27  2  0  0  0  0
 18 26  2  0  0  0  0
 19 20  1  0  0  0  0
 19 21  1  0  0  0  0
 20 22  1  0  0  0  0
 21 23  1  0  0  0  0
 22 24  1  0  0  0  0
 23 25  1  0  0  0  0
 24 26  1  0  0  0  0
 25 27  1  0  0  0  0
M  END
>  <INPUT>
DTXSID10379774

>  <FOUND_BY>
DSSTox_Substance_Id

>  <DTXSID>
DTXSID10379774

>  <PREFERRED_NAME>
Perfluorononanedioic acid

>  <CASRN>
23453-64-7

>  <INCHIKEY>
WRYSWXOLGMKBKW-UHFFFAOYSA-N

>  <IUPAC_NAME>
Tetradecafluorononanedioic acid

>  <SMILES>
OC(=O)C(F)(F)C(F)(F)C(F)(F)C(F)(F)C(F)(F)C(F)(F)C(F)(F)C(O)=O

>  <INCHI_STRING>
InChI=1S/C9H2F14O4/c10-3(11,1(24)25)5(14,15)7(18,19)9(22,23)8(20,21)6(16,17)4(12,13)2(26)27/h(H,24,25)(H,26,27)

>  <MOLECULAR_FORMULA>
C9H2F14O4

>  <AVERAGE_MASS>
440.089

>  <MONOISOTOPIC_MASS>
439.972952826

>  <MOL_FILE>
MOL_FILE

$$$$

  -INDIGO-02112615072D

 25 24  0  0  0  0  0  0  0  0999 V2000
    6.3112    1.6154    0.0000 F   0  0  0  0  0  0  0  0  0  0  0  0
    7.8512   -1.0519    0.0000 F   0  0  0  0  0  0  0  0  0  0  0  0
   13.1861    1.6154    0.0000 F   0  0  0  0  0  0  0  0  0  0  0  0
   11.6461   -1.0519    0.0000 F   0  0  0  0  0  0  0  0  0  0  0  0
    4.9775    0.8454    0.0000 F   0  0  0  0  0  0  0  0  0  0  0  0
    6.5175   -1.8219    0.0000 F   0  0  0  0  0  0  0  0  0  0  0  0
   14.5197    0.8454    0.0000 F   0  0  0  0  0  0  0  0  0  0  0  0
   12.9797   -1.8219    0.0000 F   0  0  0  0  0  0  0  0  0  0  0  0
   16.4171   -2.0281    0.0000 F   0  0  0  0  0  0  0  0  0  0  0  0
   15.8534    0.0754    0.0000 F   0  0  0  0  0  0  0  0  0  0  0  0
   14.3134   -2.5919    0.0000 F   0  0  0  0  0  0  0  0  0  0  0  0
    3.0800   -2.0281    0.0000 F   0  0  0  0  0  0  0  0  0  0  0  0
    3.6437    0.0754    0.0000 F   0  0  0  0  0  0  0  0  0  0  0  0
    5.1837   -2.5919    0.0000 F   0  0  0  0  0  0  0  0  0  0  0  0
    8.4149    2.5919    0.0000 O   0  0  0  0  0  0  0  0  0  0  0  0
   11.0824    2.5919    0.0000 O   0  0  0  0  0  0  0  0  0  0  0  0
    7.0812    0.2819    0.0000 C   0  0  0  0  0  0  0  0  0  0  0  0
   12.4161    0.2819    0.0000 C   0  0  0  0  0  0  0  0  0  0  0  0
    9.7485    0.2819    0.0000 C   0  0  0  0  0  0  0  0  0  0  0  0
    5.7475   -0.4881    0.0000 C   0  0  0  0  0  0  0  0  0  0  0  0
   13.7497   -0.4881    0.0000 C   0  0  0  0  0  0  0  0  0  0  0  0
   11.0824    1.0519    0.0000 C   0  0  0  0  0  0  0  0  0  0  0  0
    8.4149    1.0519    0.0000 C   0  0  0  0  0  0  0  0  0  0  0  0
   15.0834   -1.2581    0.0000 C   0  0  0  0  0  0  0  0  0  0  0  0
    4.4137   -1.2581    0.0000 C   0  0  0  0  0  0  0  0  0  0  0  0
  1 17  1  0  0  0  0
  2 17  1  0  0  0  0
  3 18  1  0  0  0  0
  4 18  1  0  0  0  0
  5 20  1  0  0  0  0
  6 20  1  0  0  0  0
  7 21  1  0  0  0  0
  8 21  1  0  0  0  0
  9 24  1  0  0  0  0
 10 24  1  0  0  0  0
 11 24  1  0  0  0  0
 12 25  1  0  0  0  0
 13 25  1  0  0  0  0
 14 25  1  0  0  0  0
 15 23  2  0  0  0  0
 16 22  2  0  0  0  0
 17 20  1  0  0  0  0
 17 23  1  0  0  0  0
 18 21  1  0  0  0  0
 18 22  1  0  0  0  0
 19 22  1  0  0  0  0
 19 23  1  0  0  0  0
 20 25  1  0  0  0  0
 21 24  1  0  0  0  0
M  END
>  <INPUT>
DTXSID70347030

>  <FOUND_BY>
DSSTox_Substance_Id

>  <DTXSID>
DTXSID70347030

>  <PREFERRED_NAME>
5H,5H-Perfluoro-4,6-nonanedione

>  <CASRN>
113116-18-0

>  <INCHIKEY>
NICYPDXBQUERJQ-UHFFFAOYSA-N

>  <IUPAC_NAME>
1,1,1,2,2,3,3,7,7,8,8,9,9,9-Tetradecafluorononane-4,6-dione

>  <SMILES>
FC(F)(F)C(F)(F)C(F)(F)C(=O)CC(=O)C(F)(F)C(F)(F)C(F)(F)F

>  <INCHI_STRING>
InChI=1S/C9H2F14O2/c10-4(11,6(14,15)8(18,19)20)2(24)1-3(25)5(12,13)7(16,17)9(21,22)23/h1H2

>  <MOLECULAR_FORMULA>
C9H2F14O2

>  <AVERAGE_MASS>
408.091

>  <MONOISOTOPIC_MASS>
407.983123586

>  <MOL_FILE>
MOL_FILE

$$$$

  -INDIGO-02112615072D

 20 19  0  0  0  0  0  0  0  0999 V2000
    8.0082   -1.7187    0.0000 F   0  0  0  0  0  0  0  0  0  0  0  0
    6.4682    1.3613    0.0000 F   0  0  0  0  0  0  0  0  0  0  0  0
    6.4682   -1.7187    0.0000 F   0  0  0  0  0  0  0  0  0  0  0  0
    4.9282    1.3613    0.0000 F   0  0  0  0  0  0  0  0  0  0  0  0
    4.9282   -1.7187    0.0000 F   0  0  0  0  0  0  0  0  0  0  0  0
   11.0882   -0.1787    0.0000 F   0  0  0  0  0  0  0  0  0  0  0  0
    9.5482    1.3613    0.0000 F   0  0  0  0  0  0  0  0  0  0  0  0
    9.5482   -1.7187    0.0000 F   0  0  0  0  0  0  0  0  0  0  0  0
    8.0082    2.9013    0.0000 F   0  0  0  0  0  0  0  0  0  0  0  0
    9.2541    2.2665    0.0000 F   0  0  0  0  0  0  0  0  0  0  0  0
    6.7623    2.2665    0.0000 F   0  0  0  0  0  0  0  0  0  0  0  0
    1.8482   -0.1787    0.0000 F   0  0  0  0  0  0  0  0  0  0  0  0
    3.3882    1.3613    0.0000 F   0  0  0  0  0  0  0  0  0  0  0  0
    3.3882   -1.7187    0.0000 F   0  0  0  0  0  0  0  0  0  0  0  0
    8.0082   -0.1787    0.0000 C   0  0  0  0  0  0  0  0  0  0  0  0
    6.4682   -0.1787    0.0000 C   0  0  0  0  0  0  0  0  0  0  0  0
    4.9282   -0.1787    0.0000 C   0  0  0  0  0  0  0  0  0  0  0  0
    9.5482   -0.1787    0.0000 C   0  0  0  0  0  0  0  0  0  0  0  0
    8.0082    1.3613    0.0000 C   0  0  0  0  0  0  0  0  0  0  0  0
    3.3882   -0.1787    0.0000 C   0  0  0  0  0  0  0  0  0  0  0  0
  1 15  1  0  0  0  0
  2 16  1  0  0  0  0
  3 16  1  0  0  0  0
  4 17  1  0  0  0  0
  5 17  1  0  0  0  0
  6 18  1  0  0  0  0
  7 18  1  0  0  0  0
  8 18  1  0  0  0  0
  9 19  1  0  0  0  0
 10 19  1  0  0  0  0
 11 19  1  0  0  0  0
 12 20  1  0  0  0  0
 13 20  1  0  0  0  0
 14 20  1  0  0  0  0
 15 16  1  0  0  0  0
 15 18  1  0  0  0  0
 15 19  1  0  0  0  0
 16 17  1  0  0  0  0
 17 20  1  0  0  0  0
M  END
>  <INPUT>
DTXSID40188992

>  <FOUND_BY>
DSSTox_Substance_Id

>  <DTXSID>
DTXSID40188992

>  <PREFERRED_NAME>
Perfluoroisohexane

>  <CASRN>
355-04-4

>  <INCHIKEY>
ROVMKEZVKFJNBD-UHFFFAOYSA-N

>  <IUPAC_NAME>
1,1,1,2,2,3,3,4,5,5,5-Undecafluoro-4-(trifluoromethyl)pentane

>  <SMILES>
FC(F)(F)C(F)(F)C(F)(F)C(F)(C(F)(F)F)C(F)(F)F

>  <INCHI_STRING>
InChI=1S/C6F14/c7-1(4(12,13)14,5(15,16)17)2(8,9)3(10,11)6(18,19)20


>  <MOLECULAR_FORMULA>
C6F14

>  <AVERAGE_MASS>
338.044

>  <MONOISOTOPIC_MASS>
337.977644282

>  <MOL_FILE>
MOL_FILE

$$$$

  -INDIGO-02112615072D

 24 23  0  0  0  0  0  0  0  0999 V2000
   11.6461    1.3337    0.0000 F   0  0  0  0  0  0  0  0  0  0  0  0
   13.1861   -1.3337    0.0000 F   0  0  0  0  0  0  0  0  0  0  0  0
   10.3124    0.5637    0.0000 F   0  0  0  0  0  0  0  0  0  0  0  0
   11.8524   -2.1037    0.0000 F   0  0  0  0  0  0  0  0  0  0  0  0
   12.9797    2.1037    0.0000 F   0  0  0  0  0  0  0  0  0  0  0  0
   14.5197   -0.5637    0.0000 F   0  0  0  0  0  0  0  0  0  0  0  0
    8.9785   -0.2065    0.0000 F   0  0  0  0  0  0  0  0  0  0  0  0
   10.5187   -2.8737    0.0000 F   0  0  0  0  0  0  0  0  0  0  0  0
   15.8534    0.2065    0.0000 F   0  0  0  0  0  0  0  0  0  0  0  0
   14.3134    2.8737    0.0000 F   0  0  0  0  0  0  0  0  0  0  0  0
   17.7509    1.5400    0.0000 F   0  0  0  0  0  0  0  0  0  0  0  0
   16.4171    3.8500    0.0000 F   0  0  0  0  0  0  0  0  0  0  0  0
    7.0812   -1.5400    0.0000 O   0  0  0  0  0  0  0  0  0  0  0  0
    5.7475   -3.8500    0.0000 O   0  0  0  0  0  0  0  0  0  0  0  0
   12.4161    0.0000    0.0000 C   0  0  0  0  0  0  0  0  0  0  0  0
   11.0824   -0.7700    0.0000 C   0  0  0  0  0  0  0  0  0  0  0  0
   13.7497    0.7700    0.0000 C   0  0  0  0  0  0  0  0  0  0  0  0
    9.7485   -1.5400    0.0000 C   0  0  0  0  0  0  0  0  0  0  0  0
   15.0834    1.5400    0.0000 C   0  0  0  0  0  0  0  0  0  0  0  0
    8.4149   -2.3100    0.0000 C   0  0  0  0  0  0  0  0  0  0  0  0
   16.4171    2.3100    0.0000 C   0  0  0  0  0  0  0  0  0  0  0  0
    5.7475   -2.3100    0.0000 C   0  0  0  0  0  0  0  0  0  0  0  0
    4.4137   -1.5400    0.0000 C   0  0  0  0  0  0  0  0  0  0  0  0
    3.0800   -2.3100    0.0000 C   0  0  0  0  0  0  0  0  0  0  0  0
  1 15  1  0  0  0  0
  2 15  1  0  0  0  0
  3 16  1  0  0  0  0
  4 16  1  0  0  0  0
  5 17  1  0  0  0  0
  6 17  1  0  0  0  0
  7 18  1  0  0  0  0
  8 18  1  0  0  0  0
  9 19  1  0  0  0  0
 10 19  1  0  0  0  0
 11 21  1  0  0  0  0
 12 21  1  0  0  0  0
 13 20  1  0  0  0  0
 13 22  1  0  0  0  0
 14 22  2  0  0  0  0
 15 16  1  0  0  0  0
 15 17  1  0  0  0  0
 16 18  1  0  0  0  0
 17 19  1  0  0  0  0
 18 20  1  0  0  0  0
 19 21  1  0  0  0  0
 22 23  1  0  0  0  0
 23 24  2  0  0  0  0
M  END
>  <INPUT>
DTXSID80184039

>  <FOUND_BY>
DSSTox_Substance_Id

>  <DTXSID>
DTXSID80184039

>  <PREFERRED_NAME>
(6H-Perfluorohexyl)methyl acrylate

>  <CASRN>
2993-85-3

>  <INCHIKEY>
QJEJDNMGOWJONG-UHFFFAOYSA-N

>  <IUPAC_NAME>
2,2,3,3,4,4,5,5,6,6,7,7-Dodecafluoroheptyl prop-2-enoate

>  <SMILES>
FC(F)C(F)(F)C(F)(F)C(F)(F)C(F)(F)C(F)(F)COC(=O)C=C

>  <INCHI_STRING>
InChI=1S/C10H6F12O2/c1-2-4(23)24-3-6(13,14)8(17,18)10(21,22)9(19,20)7(15,16)5(11)12/h2,5H,1,3H2

>  <MOLECULAR_FORMULA>
C10H6F12O2

>  <AVERAGE_MASS>
386.137

>  <MONOISOTOPIC_MASS>
386.017617389

>  <MOL_FILE>
MOL_FILE

$$$$

  -INDIGO-02112615072D

 20 19  0  0  0  0  0  0  0  0999 V2000
    3.0800   -2.6951    0.0000 Cl  0  0  0  0  0  0  0  0  0  0  0  0
    6.3112    0.9486    0.0000 F   0  0  0  0  0  0  0  0  0  0  0  0
    7.8512   -1.7186    0.0000 F   0  0  0  0  0  0  0  0  0  0  0  0
    9.1849   -0.9486    0.0000 F   0  0  0  0  0  0  0  0  0  0  0  0
    7.6449    1.7186    0.0000 F   0  0  0  0  0  0  0  0  0  0  0  0
    4.9775    0.1786    0.0000 F   0  0  0  0  0  0  0  0  0  0  0  0
    6.5175   -2.4886    0.0000 F   0  0  0  0  0  0  0  0  0  0  0  0
   10.5187   -0.1786    0.0000 F   0  0  0  0  0  0  0  0  0  0  0  0
    8.9785    2.4886    0.0000 F   0  0  0  0  0  0  0  0  0  0  0  0
    3.6437   -0.5914    0.0000 F   0  0  0  0  0  0  0  0  0  0  0  0
    5.1837   -3.2586    0.0000 F   0  0  0  0  0  0  0  0  0  0  0  0
   12.4161    2.6951    0.0000 F   0  0  0  0  0  0  0  0  0  0  0  0
   11.8524    0.5914    0.0000 F   0  0  0  0  0  0  0  0  0  0  0  0
   10.3124    3.2586    0.0000 F   0  0  0  0  0  0  0  0  0  0  0  0
    7.0812   -0.3851    0.0000 C   0  0  0  0  0  0  0  0  0  0  0  0
    8.4149    0.3851    0.0000 C   0  0  0  0  0  0  0  0  0  0  0  0
    5.7475   -1.1551    0.0000 C   0  0  0  0  0  0  0  0  0  0  0  0
    9.7485    1.1551    0.0000 C   0  0  0  0  0  0  0  0  0  0  0  0
    4.4137   -1.9251    0.0000 C   0  0  0  0  0  0  0  0  0  0  0  0
   11.0824    1.9251    0.0000 C   0  0  0  0  0  0  0  0  0  0  0  0
  1 19  1  0  0  0  0
  2 15  1  0  0  0  0
  3 15  1  0  0  0  0
  4 16  1  0  0  0  0
  5 16  1  0  0  0  0
  6 17  1  0  0  0  0
  7 17  1  0  0  0  0
  8 18  1  0  0  0  0
  9 18  1  0  0  0  0
 10 19  1  0  0  0  0
 11 19  1  0  0  0  0
 12 20  1  0  0  0  0
 13 20  1  0  0  0  0
 14 20  1  0  0  0  0
 15 16  1  0  0  0  0
 15 17  1  0  0  0  0
 16 18  1  0  0  0  0
 17 19  1  0  0  0  0
 18 20  1  0  0  0  0
M  END
>  <INPUT>
DTXSID80188996

>  <FOUND_BY>
DSSTox_Substance_Id

>  <DTXSID>
DTXSID80188996

>  <PREFERRED_NAME>
Perfluorohexylchloride

>  <CASRN>
355-41-9

>  <INCHIKEY>
BDUCYIFEYLMINO-UHFFFAOYSA-N

>  <IUPAC_NAME>
1-Chloro-1,1,2,2,3,3,4,4,5,5,6,6,6-tridecafluorohexane

>  <SMILES>
FC(F)(F)C(F)(F)C(F)(F)C(F)(F)C(F)(F)C(F)(F)Cl

>  <INCHI_STRING>
InChI=1S/C6ClF13/c7-5(16,17)3(12,13)1(8,9)2(10,11)4(14,15)6(18,19)20

>  <MOLECULAR_FORMULA>
C6ClF13

>  <AVERAGE_MASS>
354.5

>  <MONOISOTOPIC_MASS>
353.9480938

>  <MOL_FILE>
MOL_FILE

$$$$

  -INDIGO-02112615072D

 11 10  0  0  0  0  0  0  0  0999 V2000
    1.5400    0.0000    0.0000 C   0  0  0  0  0  0  0  0  0  0  0  0
    1.5400   -1.5400    0.0000 C   0  0  0  0  0  0  0  0  0  0  0  0
    0.2063   -2.3100    0.0000 C   0  0  0  0  0  0  0  0  0  0  0  0
    0.2063   -3.8500    0.0000 C   0  0  0  0  0  0  0  0  0  0  0  0
    0.2063   -5.3900    0.0000 F   0  0  0  0  0  0  0  0  0  0  0  0
    1.7463   -3.8500    0.0000 F   0  0  0  0  0  0  0  0  0  0  0  0
   -1.3337   -3.8500    0.0000 F   0  0  0  0  0  0  0  0  0  0  0  0
    2.8737   -2.3100    0.0000 O   0  0  0  0  0  0  0  0  0  0  0  0
    1.5400    1.5400    0.0000 F   0  0  0  0  0  0  0  0  0  0  0  0
    3.0800    0.0000    0.0000 F   0  0  0  0  0  0  0  0  0  0  0  0
    0.0000    0.0000    0.0000 F   0  0  0  0  0  0  0  0  0  0  0  0
  1  2  1  0  0  0  0
  2  3  1  0  0  0  0
  3  4  1  0  0  0  0
  4  5  1  0  0  0  0
  4  6  1  0  0  0  0
  4  7  1  0  0  0  0
  2  8  2  0  0  0  0
  1  9  1  0  0  0  0
  1 10  1  0  0  0  0
  1 11  1  0  0  0  0
M  END
>  <INPUT>
DTXSID9075240

>  <FOUND_BY>
DSSTox_Substance_Id

>  <DTXSID>
DTXSID9075240

>  <PREFERRED_NAME>
3H,3H-Perfluoro-2-butanone

>  <CASRN>
400-49-7

>  <INCHIKEY>
WRTVISAIMBSMEN-UHFFFAOYSA-N

>  <IUPAC_NAME>
1,1,1,4,4,4-Hexafluorobutan-2-one

>  <SMILES>
FC(F)(F)CC(=O)C(F)(F)F

>  <INCHI_STRING>
InChI=1S/C4H2F6O/c5-3(6,7)1-2(11)4(8,9)10/h1H2

>  <MOLECULAR_FORMULA>
C4H2F6O

>  <AVERAGE_MASS>
180.049

>  <MONOISOTOPIC_MASS>
180.000983662

>  <MOL_FILE>
MOL_FILE

$$$$

  -INDIGO-02112615072D

 19 18  0  0  0  0  0  0  0  0999 V2000
   -3.3602   -3.3321    0.0000 O   0  0  0  0  0  0  0  0  0  0  0  0
   -1.8202   -3.3321    0.0000 C   0  0  0  0  0  0  0  0  0  0  0  0
   -1.0548   -4.6669    0.0000 O   0  0  0  0  0  0  0  0  0  0  0  0
   -1.0548   -1.9974    0.0000 C   0  0  0  0  0  0  0  0  0  0  0  0
    0.2800   -2.7722    0.0000 F   0  0  0  0  0  0  0  0  0  0  0  0
   -2.3801   -1.2320    0.0000 F   0  0  0  0  0  0  0  0  0  0  0  0
   -0.2800   -0.6628    0.0000 C   0  0  0  0  0  0  0  0  0  0  0  0
    1.0546   -1.4373    0.0000 F   0  0  0  0  0  0  0  0  0  0  0  0
   -1.6149    0.1027    0.0000 Cl  0  0  0  0  0  0  0  0  0  0  0  0
    0.4852    0.6628    0.0000 C   0  0  0  0  0  0  0  0  0  0  0  0
    1.8200   -0.1027    0.0000 F   0  0  0  0  0  0  0  0  0  0  0  0
   -0.8495    1.4373    0.0000 F   0  0  0  0  0  0  0  0  0  0  0  0
    1.2600    1.9974    0.0000 C   0  0  0  0  0  0  0  0  0  0  0  0
    2.5948    1.2322    0.0000 F   0  0  0  0  0  0  0  0  0  0  0  0
   -0.0747    2.7722    0.0000 Cl  0  0  0  0  0  0  0  0  0  0  0  0
    2.0254    3.3323    0.0000 C   0  0  0  0  0  0  0  0  0  0  0  0
    3.3602    2.5668    0.0000 F   0  0  0  0  0  0  0  0  0  0  0  0
    0.6905    4.1068    0.0000 F   0  0  0  0  0  0  0  0  0  0  0  0
    2.8000    4.6669    0.0000 Cl  0  0  0  0  0  0  0  0  0  0  0  0
  1  2  1  0  0  0  0
  2  3  2  0  0  0  0
  2  4  1  0  0  0  0
  4  5  1  0  0  0  0
  4  6  1  0  0  0  0
  4  7  1  0  0  0  0
  7  8  1  0  0  0  0
  7  9  1  0  0  0  0
  7 10  1  0  0  0  0
 10 11  1  0  0  0  0
 10 12  1  0  0  0  0
 10 13  1  0  0  0  0
 13 14  1  0  0  0  0
 13 15  1  0  0  0  0
 13 16  1  0  0  0  0
 16 17  1  0  0  0  0
 16 18  1  0  0  0  0
 16 19  1  0  0  0  0
M  END
>  <INPUT>
DTXSID90880176

>  <FOUND_BY>
DSSTox_Substance_Id

>  <DTXSID>
DTXSID90880176

>  <PREFERRED_NAME>
3,5,6-Trichloroperfluorohexanoic acid

>  <CASRN>
2106-54-9

>  <INCHIKEY>
ANRGSWRBGXZQLY-UHFFFAOYNA-N

>  <IUPAC_NAME>
3,5,6-Trichloro-2,2,3,4,4,5,6,6-octafluorohexanoic acid

>  <SMILES>
OC(=O)C(F)(F)C(F)(Cl)C(F)(F)C(F)(Cl)C(F)(F)Cl

>  <INCHI_STRING>
InChI=1S/C6HCl3F8O2/c7-3(12,2(10,11)1(18)19)5(14,15)4(8,13)6(9,16)17/h(H,18,19)

>  <MOLECULAR_FORMULA>
C6HCl3F8O2

>  <AVERAGE_MASS>
363.41

>  <MONOISOTOPIC_MASS>
361.8914377

>  <MOL_FILE>
MOL_FILE

$$$$

  -INDIGO-02112615072D

 12 11  0  0  0  0  0  0  0  0999 V2000
    7.0812   -0.3851    0.0000 S   0  0  0  0  0  0  0  0  0  0  0  0
    9.7485    1.1551    0.0000 F   0  0  0  0  0  0  0  0  0  0  0  0
    9.1849   -0.9486    0.0000 F   0  0  0  0  0  0  0  0  0  0  0  0
    7.6449    1.7186    0.0000 F   0  0  0  0  0  0  0  0  0  0  0  0
    3.0800    0.3851    0.0000 F   0  0  0  0  0  0  0  0  0  0  0  0
    3.6437   -1.7186    0.0000 F   0  0  0  0  0  0  0  0  0  0  0  0
    5.1837    0.9486    0.0000 F   0  0  0  0  0  0  0  0  0  0  0  0
    5.7475   -1.1551    0.0000 O   0  0  0  0  0  0  0  0  0  0  0  0
    6.3112    0.9486    0.0000 O   0  0  0  0  0  0  0  0  0  0  0  0
    7.8512   -1.7186    0.0000 O   0  0  0  0  0  0  0  0  0  0  0  0
    8.4149    0.3851    0.0000 C   0  0  0  0  0  0  0  0  0  0  0  0
    4.4137   -0.3851    0.0000 C   0  0  0  0  0  0  0  0  0  0  0  0
  1  8  1  0  0  0  0
  1  9  2  0  0  0  0
  1 10  2  0  0  0  0
  1 11  1  0  0  0  0
  2 11  1  0  0  0  0
  3 11  1  0  0  0  0
  4 11  1  0  0  0  0
  5 12  1  0  0  0  0
  6 12  1  0  0  0  0
  7 12  1  0  0  0  0
  8 12  1  0  0  0  0
M  END
>  <INPUT>
DTXSID40320072

>  <FOUND_BY>
DSSTox_Substance_Id

>  <DTXSID>
DTXSID40320072

>  <PREFERRED_NAME>
Trifluoromethyl trifluoromethanesulfonate

>  <CASRN>
3582-05-6

>  <INCHIKEY>
GVZFDPPAJXHNGL-UHFFFAOYSA-N

>  <IUPAC_NAME>
Trifluoromethyl trifluoromethanesulfonate

>  <SMILES>
FC(F)(F)OS(=O)(=O)C(F)(F)F

>  <INCHI_STRING>
InChI=1S/C2F6O3S/c3-1(4,5)11-12(9,10)2(6,7)8

>  <MOLECULAR_FORMULA>
C2F6O3S

>  <AVERAGE_MASS>
218.07

>  <MONOISOTOPIC_MASS>
217.947234012

>  <MOL_FILE>
MOL_FILE

$$$$

  -INDIGO-02112615072D

 20 19  0  0  0  0  0  0  0  0999 V2000
    8.4717    0.9486    0.0000 F   0  0  0  0  0  0  0  0  0  0  0  0
   11.3456   -0.9486    0.0000 F   0  0  0  0  0  0  0  0  0  0  0  0
    9.8056    1.7186    0.0000 F   0  0  0  0  0  0  0  0  0  0  0  0
   10.0117   -1.7186    0.0000 F   0  0  0  0  0  0  0  0  0  0  0  0
    5.8044   -1.7186    0.0000 F   0  0  0  0  0  0  0  0  0  0  0  0
    7.3444    0.9486    0.0000 F   0  0  0  0  0  0  0  0  0  0  0  0
   14.0129    1.7186    0.0000 F   0  0  0  0  0  0  0  0  0  0  0  0
   12.4729   -0.9486    0.0000 F   0  0  0  0  0  0  0  0  0  0  0  0
    7.9081   -1.1551    0.0000 O   0  0  0  0  0  0  0  0  0  0  0  0
   11.9091    1.1551    0.0000 O   0  0  0  0  0  0  0  0  0  0  0  0
    3.9069   -0.3851    0.0000 O   0  0  0  0  0  0  0  0  0  0  0  0
   15.9103    0.3851    0.0000 O   0  0  0  0  0  0  0  0  0  0  0  0
   14.5766   -1.9251    0.0000 O   0  0  0  0  0  0  0  0  0  0  0  0
    5.2407    1.9251    0.0000 O   0  0  0  0  0  0  0  0  0  0  0  0
    9.2417   -0.3851    0.0000 C   0  0  0  0  0  0  0  0  0  0  0  0
   10.5756    0.3851    0.0000 C   0  0  0  0  0  0  0  0  0  0  0  0
    6.5744   -0.3851    0.0000 C   0  0  0  0  0  0  0  0  0  0  0  0
   13.2429    0.3851    0.0000 C   0  0  0  0  0  0  0  0  0  0  0  0
    5.2407    0.3851    0.0000 C   0  0  0  0  0  0  0  0  0  0  0  0
   14.5766   -0.3851    0.0000 C   0  0  0  0  0  0  0  0  0  0  0  0
  1 15  1  0  0  0  0
  2 16  1  0  0  0  0
  3 16  1  0  0  0  0
  4 15  1  0  0  0  0
  5 17  1  0  0  0  0
  6 17  1  0  0  0  0
  7 18  1  0  0  0  0
  8 18  1  0  0  0  0
  9 15  1  0  0  0  0
  9 17  1  0  0  0  0
 10 16  1  0  0  0  0
 10 18  1  0  0  0  0
 11 19  1  0  0  0  0
 12 20  1  0  0  0  0
 13 20  2  0  0  0  0
 14 19  2  0  0  0  0
 15 16  1  0  0  0  0
 17 19  1  0  0  0  0
 18 20  1  0  0  0  0
M  END
>  <INPUT>
DTXSID20375106

>  <FOUND_BY>
DSSTox_Substance_Id

>  <DTXSID>
DTXSID20375106

>  <PREFERRED_NAME>
Perfluoro-3,6-dioxaoctane-1,8-dioic acid

>  <CASRN>
55621-21-1

>  <INCHIKEY>
PXMYQUXWTLQKLL-UHFFFAOYSA-N

>  <IUPAC_NAME>
2,2'-[(1,1,2,2-Tetrafluoroethane-1,2-diyl)bis(oxy)]bis(difluoroacetic acid)

>  <SMILES>
OC(=O)C(F)(F)OC(F)(F)C(F)(F)OC(F)(F)C(O)=O

>  <INCHI_STRING>
InChI=1S/C6H2F8O6/c7-3(8,1(15)16)19-5(11,12)6(13,14)20-4(9,10)2(17)18/h(H,15,16)(H,17,18)

>  <MOLECULAR_FORMULA>
C6H2F8O6

>  <AVERAGE_MASS>
322.063

>  <MONOISOTOPIC_MASS>
321.972363088

>  <MOL_FILE>
MOL_FILE

$$$$

  -INDIGO-02112615072D

  7  6  0  0  0  0  0  0  0  0999 V2000
    1.3355   -1.5401    0.0000 C   0  0  0  0  0  0  0  0  0  0  0  0
    1.3355    0.0000    0.0000 O   0  0  0  0  0  0  0  0  0  0  0  0
    0.0000   -2.3222    0.0000 O   0  0  0  0  0  0  0  0  0  0  0  0
    2.6551   -2.3222    0.0000 C   0  0  0  0  0  0  0  0  0  0  0  0
    2.6551   -3.8622    0.0000 F   0  0  0  0  0  0  0  0  0  0  0  0
    4.0106   -1.5401    0.0000 F   0  0  0  0  0  0  0  0  0  0  0  0
    4.0106   -3.0842    0.0000 F   0  0  0  0  0  0  0  0  0  0  0  0
  1  2  2  0  0  0  0
  1  3  1  0  0  0  0
  1  4  1  0  0  0  0
  4  5  1  0  0  0  0
  4  6  1  0  0  0  0
  4  7  1  0  0  0  0
M  END
>  <INPUT>
DTXSID9041578

>  <FOUND_BY>
DSSTox_Substance_Id

>  <DTXSID>
DTXSID9041578

>  <PREFERRED_NAME>
Trifluoroacetic acid

>  <CASRN>
76-05-1

>  <INCHIKEY>
DTQVDTLACAAQTR-UHFFFAOYSA-N

>  <IUPAC_NAME>
Trifluoroacetic acid

>  <SMILES>
OC(=O)C(F)(F)F

>  <INCHI_STRING>
InChI=1S/C2HF3O2/c3-2(4,5)1(6)7/h(H,6,7)


>  <MOLECULAR_FORMULA>
C2HF3O2

>  <AVERAGE_MASS>
114.023

>  <MONOISOTOPIC_MASS>
113.992863761

>  <MOL_FILE>
MOL_FILE

$$$$

  -INDIGO-02112615072D

 22 21  0  0  0  0  0  0  0  0999 V2000
    3.4970    0.5190    0.0000 S   0  0  0  0  0  0  0  0  0  0  0  0
   10.4270   -2.3547    0.0000 F   0  0  0  0  0  0  0  0  0  0  0  0
   10.4270    0.7254    0.0000 F   0  0  0  0  0  0  0  0  0  0  0  0
    8.8870   -2.3547    0.0000 F   0  0  0  0  0  0  0  0  0  0  0  0
    8.8870    0.7254    0.0000 F   0  0  0  0  0  0  0  0  0  0  0  0
   11.9671   -2.3547    0.0000 F   0  0  0  0  0  0  0  0  0  0  0  0
   11.9670    0.7254    0.0000 F   0  0  0  0  0  0  0  0  0  0  0  0
    7.3471   -2.3546    0.0000 F   0  0  0  0  0  0  0  0  0  0  0  0
    7.3471    0.7254    0.0000 F   0  0  0  0  0  0  0  0  0  0  0  0
   13.5071   -2.3546    0.0000 F   0  0  0  0  0  0  0  0  0  0  0  0
   13.5071    0.7254    0.0000 F   0  0  0  0  0  0  0  0  0  0  0  0
   16.5870   -0.8147    0.0000 F   0  0  0  0  0  0  0  0  0  0  0  0
   15.0471   -2.3546    0.0000 F   0  0  0  0  0  0  0  0  0  0  0  0
   15.0471    0.7254    0.0000 F   0  0  0  0  0  0  0  0  0  0  0  0
   10.4270   -0.8147    0.0000 C   0  0  0  0  0  0  0  0  0  0  0  0
    8.8870   -0.8147    0.0000 C   0  0  0  0  0  0  0  0  0  0  0  0
   11.9670   -0.8146    0.0000 C   0  0  0  0  0  0  0  0  0  0  0  0
    7.3471   -0.8146    0.0000 C   0  0  0  0  0  0  0  0  0  0  0  0
   13.5071   -0.8146    0.0000 C   0  0  0  0  0  0  0  0  0  0  0  0
    5.8071   -0.8146    0.0000 C   0  0  0  0  0  0  0  0  0  0  0  0
   15.0471   -0.8146    0.0000 C   0  0  0  0  0  0  0  0  0  0  0  0
    5.0371    0.5190    0.0000 C   0  0  0  0  0  0  0  0  0  0  0  0
  1 22  1  0  0  0  0
  2 15  1  0  0  0  0
  3 15  1  0  0  0  0
  4 16  1  0  0  0  0
  5 16  1  0  0  0  0
  6 17  1  0  0  0  0
  7 17  1  0  0  0  0
  8 18  1  0  0  0  0
  9 18  1  0  0  0  0
 10 19  1  0  0  0  0
 11 19  1  0  0  0  0
 12 21  1  0  0  0  0
 13 21  1  0  0  0  0
 14 21  1  0  0  0  0
 15 16  1  0  0  0  0
 15 17  1  0  0  0  0
 16 18  1  0  0  0  0
 17 19  1  0  0  0  0
 18 20  1  0  0  0  0
 19 21  1  0  0  0  0
 20 22  1  0  0  0  0
M  END
>  <INPUT>
DTXSID20379947

>  <FOUND_BY>
DSSTox_Substance_Id

>  <DTXSID>
DTXSID20379947

>  <PREFERRED_NAME>
2-(Perfluorohexyl)ethanethiol

>  <CASRN>
34451-26-8

>  <INCHIKEY>
GTPHVVCYEWPQFE-UHFFFAOYSA-N

>  <IUPAC_NAME>
3,3,4,4,5,5,6,6,7,7,8,8,8-Tridecafluorooctane-1-thiol

>  <SMILES>
FC(F)(F)C(F)(F)C(F)(F)C(F)(F)C(F)(F)C(F)(F)CCS

>  <INCHI_STRING>
InChI=1S/C8H5F13S/c9-3(10,1-2-22)4(11,12)5(13,14)6(15,16)7(17,18)8(19,20)21/h22H,1-2H2


>  <MOLECULAR_FORMULA>
C8H5F13S

>  <AVERAGE_MASS>
380.17

>  <MONOISOTOPIC_MASS>
379.990437454

>  <MOL_FILE>
MOL_FILE

$$$$

  -INDIGO-02112615072D

 15 14  0  0  0  0  0  0  0  0999 V2000
    7.0674    1.8181    0.0000 F   0  0  0  0  0  0  0  0  0  0  0  0
    7.0674   -1.2619    0.0000 F   0  0  0  0  0  0  0  0  0  0  0  0
    8.6074    1.8181    0.0000 F   0  0  0  0  0  0  0  0  0  0  0  0
    8.6074   -1.2619    0.0000 F   0  0  0  0  0  0  0  0  0  0  0  0
   11.6874    0.2781    0.0000 F   0  0  0  0  0  0  0  0  0  0  0  0
   10.1474    1.8181    0.0000 F   0  0  0  0  0  0  0  0  0  0  0  0
   10.1474   -1.2619    0.0000 F   0  0  0  0  0  0  0  0  0  0  0  0
    2.4474   -2.3892    0.0000 O   0  0  0  0  0  0  0  0  0  0  0  0
    2.4474    0.2781    0.0000 O   0  0  0  0  0  0  0  0  0  0  0  0
    7.0674    0.2781    0.0000 C   0  0  0  0  0  0  0  0  0  0  0  0
    5.5274    0.2781    0.0000 C   0  0  0  0  0  0  0  0  0  0  0  0
    8.6074    0.2781    0.0000 C   0  0  0  0  0  0  0  0  0  0  0  0
    4.7574   -1.0556    0.0000 C   0  0  0  0  0  0  0  0  0  0  0  0
   10.1474    0.2781    0.0000 C   0  0  0  0  0  0  0  0  0  0  0  0
    3.2174   -1.0556    0.0000 C   0  0  0  0  0  0  0  0  0  0  0  0
  1 10  1  0  0  0  0
  2 10  1  0  0  0  0
  3 12  1  0  0  0  0
  4 12  1  0  0  0  0
  5 14  1  0  0  0  0
  6 14  1  0  0  0  0
  7 14  1  0  0  0  0
  8 15  1  0  0  0  0
  9 15  2  0  0  0  0
 10 11  1  0  0  0  0
 10 12  1  0  0  0  0
 11 13  1  0  0  0  0
 12 14  1  0  0  0  0
 13 15  1  0  0  0  0
M  END
>  <INPUT>
DTXSID00379268

>  <FOUND_BY>
DSSTox_Substance_Id

>  <DTXSID>
DTXSID00379268

>  <PREFERRED_NAME>
3:3 Fluorotelomer carboxylic acid

>  <CASRN>
356-02-5

>  <INCHIKEY>
ISFKSWMQWIRDNC-UHFFFAOYSA-N

>  <IUPAC_NAME>
4,4,5,5,6,6,6-Heptafluorohexanoic acid

>  <SMILES>
OC(=O)CCC(F)(F)C(F)(F)C(F)(F)F

>  <INCHI_STRING>
InChI=1S/C6H5F7O2/c7-4(8,2-1-3(14)15)5(9,10)6(11,12)13/h1-2H2,(H,14,15)


>  <MOLECULAR_FORMULA>
C6H5F7O2

>  <AVERAGE_MASS>
242.093

>  <MONOISOTOPIC_MASS>
242.017776542

>  <MOL_FILE>
MOL_FILE

$$$$

  -INDIGO-02112615072D

 13 12  0  0  0  0  0  0  0  0999 V2000
    4.4137   -0.3851    0.0000 S   0  0  0  0  0  0  0  0  0  0  0  0
    6.3112    0.9486    0.0000 F   0  0  0  0  0  0  0  0  0  0  0  0
    7.8512   -1.7186    0.0000 F   0  0  0  0  0  0  0  0  0  0  0  0
    3.0800    0.3851    0.0000 F   0  0  0  0  0  0  0  0  0  0  0  0
    8.4149    1.9251    0.0000 F   0  0  0  0  0  0  0  0  0  0  0  0
   11.0824    0.3851    0.0000 F   0  0  0  0  0  0  0  0  0  0  0  0
    9.7485   -1.9251    0.0000 F   0  0  0  0  0  0  0  0  0  0  0  0
    5.7475   -1.1551    0.0000 O   0  0  0  0  0  0  0  0  0  0  0  0
    3.6437   -1.7186    0.0000 O   0  0  0  0  0  0  0  0  0  0  0  0
    5.1837    0.9486    0.0000 O   0  0  0  0  0  0  0  0  0  0  0  0
    7.0812   -0.3851    0.0000 C   0  0  0  0  0  0  0  0  0  0  0  0
    8.4149    0.3851    0.0000 C   0  0  0  0  0  0  0  0  0  0  0  0
    9.7485   -0.3851    0.0000 C   0  0  0  0  0  0  0  0  0  0  0  0
  1  4  1  0  0  0  0
  1  8  1  0  0  0  0
  1  9  2  0  0  0  0
  1 10  2  0  0  0  0
  2 11  1  0  0  0  0
  3 11  1  0  0  0  0
  5 12  1  0  0  0  0
  6 13  1  0  0  0  0
  7 13  1  0  0  0  0
  8 11  1  0  0  0  0
 11 12  1  0  0  0  0
 12 13  2  0  0  0  0
M  END
>  <INPUT>
DTXSID50379773

>  <FOUND_BY>
DSSTox_Substance_Id

>  <DTXSID>
DTXSID50379773

>  <PREFERRED_NAME>
Pentafluoroallyl fluorosulfate

>  <CASRN>
67641-28-5

>  <INCHIKEY>
LIZZWVXXYAALGG-UHFFFAOYSA-N

>  <IUPAC_NAME>
1,1,2,3,3-Pentafluoroprop-2-en-1-yl sulfurofluoridate

>  <SMILES>
FC(F)=C(F)C(F)(F)OS(F)(=O)=O

>  <INCHI_STRING>
InChI=1S/C3F6O3S/c4-1(2(5)6)3(7,8)12-13(9,10)11

>  <MOLECULAR_FORMULA>
C3F6O3S

>  <AVERAGE_MASS>
230.08

>  <MONOISOTOPIC_MASS>
229.947234012

>  <MOL_FILE>
MOL_FILE

$$$$

  -INDIGO-02112615072D

 24 23  0  0  0  0  0  0  0  0999 V2000
    7.6449    0.9486    0.0000 F   0  0  0  0  0  0  0  0  0  0  0  0
    9.1849   -1.7186    0.0000 F   0  0  0  0  0  0  0  0  0  0  0  0
   10.5187   -0.9486    0.0000 F   0  0  0  0  0  0  0  0  0  0  0  0
    8.9785    1.7186    0.0000 F   0  0  0  0  0  0  0  0  0  0  0  0
    6.3112    0.1786    0.0000 F   0  0  0  0  0  0  0  0  0  0  0  0
    7.8512   -2.4886    0.0000 F   0  0  0  0  0  0  0  0  0  0  0  0
   11.8524   -0.1786    0.0000 F   0  0  0  0  0  0  0  0  0  0  0  0
   10.3124    2.4886    0.0000 F   0  0  0  0  0  0  0  0  0  0  0  0
    4.9775   -0.5914    0.0000 F   0  0  0  0  0  0  0  0  0  0  0  0
    6.5175   -3.2586    0.0000 F   0  0  0  0  0  0  0  0  0  0  0  0
   13.1861    0.5914    0.0000 F   0  0  0  0  0  0  0  0  0  0  0  0
   11.6461    3.2586    0.0000 F   0  0  0  0  0  0  0  0  0  0  0  0
   15.0834    1.9251    0.0000 F   0  0  0  0  0  0  0  0  0  0  0  0
   13.7497    4.2351    0.0000 F   0  0  0  0  0  0  0  0  0  0  0  0
    3.0800   -1.9251    0.0000 F   0  0  0  0  0  0  0  0  0  0  0  0
    4.4137   -4.2351    0.0000 F   0  0  0  0  0  0  0  0  0  0  0  0
    8.4149   -0.3851    0.0000 C   0  0  0  0  0  0  0  0  0  0  0  0
    9.7485    0.3851    0.0000 C   0  0  0  0  0  0  0  0  0  0  0  0
    7.0812   -1.1551    0.0000 C   0  0  0  0  0  0  0  0  0  0  0  0
   11.0824    1.1551    0.0000 C   0  0  0  0  0  0  0  0  0  0  0  0
    5.7475   -1.9251    0.0000 C   0  0  0  0  0  0  0  0  0  0  0  0
   12.4161    1.9251    0.0000 C   0  0  0  0  0  0  0  0  0  0  0  0
    4.4137   -2.6951    0.0000 C   0  0  0  0  0  0  0  0  0  0  0  0
   13.7497    2.6951    0.0000 C   0  0  0  0  0  0  0  0  0  0  0  0
  1 17  1  0  0  0  0
  2 17  1  0  0  0  0
  3 18  1  0  0  0  0
  4 18  1  0  0  0  0
  5 19  1  0  0  0  0
  6 19  1  0  0  0  0
  7 20  1  0  0  0  0
  8 20  1  0  0  0  0
  9 21  1  0  0  0  0
 10 21  1  0  0  0  0
 11 22  1  0  0  0  0
 12 22  1  0  0  0  0
 13 24  1  0  0  0  0
 14 24  1  0  0  0  0
 15 23  1  0  0  0  0
 16 23  1  0  0  0  0
 17 18  1  0  0  0  0
 17 19  1  0  0  0  0
 18 20  1  0  0  0  0
 19 21  1  0  0  0  0
 20 22  1  0  0  0  0
 21 23  1  0  0  0  0
 22 24  1  0  0  0  0
M  END
>  <INPUT>
DTXSID60379941

>  <FOUND_BY>
DSSTox_Substance_Id

>  <DTXSID>
DTXSID60379941

>  <PREFERRED_NAME>
1H,8H-Perfluorooctane

>  <CASRN>
307-99-3

>  <INCHIKEY>
JCRVQXKRULILSR-UHFFFAOYSA-N

>  <IUPAC_NAME>
1,1,2,2,3,3,4,4,5,5,6,6,7,7,8,8-Hexadecafluorooctane

>  <SMILES>
FC(F)C(F)(F)C(F)(F)C(F)(F)C(F)(F)C(F)(F)C(F)(F)C(F)F

>  <INCHI_STRING>
InChI=1S/C8H2F16/c9-1(10)3(13,14)5(17,18)7(21,22)8(23,24)6(19,20)4(15,16)2(11)12/h1-2H

>  <MOLECULAR_FORMULA>
C8H2F16

>  <AVERAGE_MASS>
402.078

>  <MONOISOTOPIC_MASS>
401.990100672

>  <MOL_FILE>
MOL_FILE

$$$$

  -INDIGO-02112615072D

 15 14  0  0  0  0  0  0  0  0999 V2000
    7.2875   -3.1125    0.0000 F   0  0  0  0  0  0  0  0  0  0  0  0
    9.1849   -0.2387    0.0000 F   0  0  0  0  0  0  0  0  0  0  0  0
    7.8512    0.5313    0.0000 F   0  0  0  0  0  0  0  0  0  0  0  0
    8.6212   -2.3425    0.0000 F   0  0  0  0  0  0  0  0  0  0  0  0
    3.8500   -3.3187    0.0000 F   0  0  0  0  0  0  0  0  0  0  0  0
    4.4137   -1.2150    0.0000 F   0  0  0  0  0  0  0  0  0  0  0  0
    5.9537   -3.8825    0.0000 F   0  0  0  0  0  0  0  0  0  0  0  0
    4.4137    3.4050    0.0000 O   0  0  0  0  0  0  0  0  0  0  0  0
    3.0800    1.0950    0.0000 O   0  0  0  0  0  0  0  0  0  0  0  0
    6.5175   -1.7787    0.0000 C   0  0  0  0  0  0  0  0  0  0  0  0
    7.8512   -1.0087    0.0000 C   0  0  0  0  0  0  0  0  0  0  0  0
    5.1837   -2.5487    0.0000 C   0  0  0  0  0  0  0  0  0  0  0  0
    5.7475   -0.4450    0.0000 C   0  0  0  0  0  0  0  0  0  0  0  0
    5.7475    1.0950    0.0000 C   0  0  0  0  0  0  0  0  0  0  0  0
    4.4137    1.8650    0.0000 C   0  0  0  0  0  0  0  0  0  0  0  0
  1 10  1  0  0  0  0
  2 11  1  0  0  0  0
  3 11  1  0  0  0  0
  4 11  1  0  0  0  0
  5 12  1  0  0  0  0
  6 12  1  0  0  0  0
  7 12  1  0  0  0  0
  8 15  1  0  0  0  0
  9 15  2  0  0  0  0
 10 11  1  0  0  0  0
 10 12  1  0  0  0  0
 10 13  1  0  0  0  0
 13 14  2  3  0  0  0
 14 15  1  0  0  0  0
M  END
>  <INPUT>
DTXSID40380257

>  <FOUND_BY>
DSSTox_Substance_Id

>  <DTXSID>
DTXSID40380257

>  <PREFERRED_NAME>
3-(Perfluoroisopropyl)-2-propenoic acid

>  <CASRN>
243139-64-2

>  <INCHIKEY>
PRHNILJSRYVRAY-UHFFFAOYSA-N

>  <IUPAC_NAME>
4,5,5,5-Tetrafluoro-4-(trifluoromethyl)pent-2-enoic acid

>  <SMILES>
OC(=O)C=CC(F)(C(F)(F)F)C(F)(F)F

>  <INCHI_STRING>
InChI=1S/C6H3F7O2/c7-4(5(8,9)10,6(11,12)13)2-1-3(14)15/h1-2H,(H,14,15)

>  <MOLECULAR_FORMULA>
C6H3F7O2

>  <AVERAGE_MASS>
240.077

>  <MONOISOTOPIC_MASS>
240.002126478

>  <MOL_FILE>
MOL_FILE

$$$$

  -INDIGO-02112615072D

 24 23  0  0  0  0  0  0  0  0999 V2000
    7.6449    1.3337    0.0000 F   0  0  0  0  0  0  0  0  0  0  0  0
    9.1849   -1.3337    0.0000 F   0  0  0  0  0  0  0  0  0  0  0  0
    8.9785    2.1037    0.0000 F   0  0  0  0  0  0  0  0  0  0  0  0
   10.5187   -0.5637    0.0000 F   0  0  0  0  0  0  0  0  0  0  0  0
    6.3112    0.5637    0.0000 F   0  0  0  0  0  0  0  0  0  0  0  0
    7.8512   -2.1037    0.0000 F   0  0  0  0  0  0  0  0  0  0  0  0
   11.8524    0.2065    0.0000 F   0  0  0  0  0  0  0  0  0  0  0  0
   10.3124    2.8737    0.0000 F   0  0  0  0  0  0  0  0  0  0  0  0
    4.9775   -0.2065    0.0000 F   0  0  0  0  0  0  0  0  0  0  0  0
    6.5175   -2.8737    0.0000 F   0  0  0  0  0  0  0  0  0  0  0  0
   13.1861    0.9765    0.0000 F   0  0  0  0  0  0  0  0  0  0  0  0
   11.6461    3.6437    0.0000 F   0  0  0  0  0  0  0  0  0  0  0  0
    3.0800   -3.0800    0.0000 F   0  0  0  0  0  0  0  0  0  0  0  0
    3.6437   -0.9765    0.0000 F   0  0  0  0  0  0  0  0  0  0  0  0
    5.1837   -3.6437    0.0000 F   0  0  0  0  0  0  0  0  0  0  0  0
    8.4149    0.0000    0.0000 C   0  0  0  0  0  0  0  0  0  0  0  0
    9.7485    0.7700    0.0000 C   0  0  0  0  0  0  0  0  0  0  0  0
    7.0812   -0.7700    0.0000 C   0  0  0  0  0  0  0  0  0  0  0  0
   11.0824    1.5400    0.0000 C   0  0  0  0  0  0  0  0  0  0  0  0
    5.7475   -1.5400    0.0000 C   0  0  0  0  0  0  0  0  0  0  0  0
   12.4161    2.3100    0.0000 C   0  0  0  0  0  0  0  0  0  0  0  0
    4.4137   -2.3100    0.0000 C   0  0  0  0  0  0  0  0  0  0  0  0
   13.7497    3.0800    0.0000 C   0  0  0  0  0  0  0  0  0  0  0  0
   15.0834    2.3100    0.0000 C   0  0  0  0  0  0  0  0  0  0  0  0
  1 16  1  0  0  0  0
  2 16  1  0  0  0  0
  3 17  1  0  0  0  0
  4 17  1  0  0  0  0
  5 18  1  0  0  0  0
  6 18  1  0  0  0  0
  7 19  1  0  0  0  0
  8 19  1  0  0  0  0
  9 20  1  0  0  0  0
 10 20  1  0  0  0  0
 11 21  1  0  0  0  0
 12 21  1  0  0  0  0
 13 22  1  0  0  0  0
 14 22  1  0  0  0  0
 15 22  1  0  0  0  0
 16 17  1  0  0  0  0
 16 18  1  0  0  0  0
 17 19  1  0  0  0  0
 18 20  1  0  0  0  0
 19 21  1  0  0  0  0
 20 22  1  0  0  0  0
 21 23  1  0  0  0  0
 23 24  2  0  0  0  0
M  END
>  <INPUT>
DTXSID90180087

>  <FOUND_BY>
DSSTox_Substance_Id

>  <DTXSID>
DTXSID90180087

>  <PREFERRED_NAME>
(Perfluoroheptyl)ethene

>  <CASRN>
25431-45-2

>  <INCHIKEY>
RXZWAMINHJDYKW-UHFFFAOYSA-N

>  <IUPAC_NAME>
3,3,4,4,5,5,6,6,7,7,8,8,9,9,9-Pentadecafluoronon-1-ene

>  <SMILES>
FC(F)(F)C(F)(F)C(F)(F)C(F)(F)C(F)(F)C(F)(F)C(F)(F)C=C

>  <INCHI_STRING>
InChI=1S/C9H3F15/c1-2-3(10,11)4(12,13)5(14,15)6(16,17)7(18,19)8(20,21)9(22,23)24/h2H,1H2

>  <MOLECULAR_FORMULA>
C9H3F15

>  <AVERAGE_MASS>
396.099

>  <MONOISOTOPIC_MASS>
395.999522542

>  <MOL_FILE>
MOL_FILE

$$$$

  -INDIGO-02112615072D

 15 14  0  0  0  0  0  0  0  0999 V2000
    7.2875   -3.1125    0.0000 F   0  0  0  0  0  0  0  0  0  0  0  0
    3.8500   -3.3187    0.0000 F   0  0  0  0  0  0  0  0  0  0  0  0
    4.4137   -1.2150    0.0000 F   0  0  0  0  0  0  0  0  0  0  0  0
    5.9537   -3.8825    0.0000 F   0  0  0  0  0  0  0  0  0  0  0  0
    9.1849   -0.2387    0.0000 F   0  0  0  0  0  0  0  0  0  0  0  0
    7.8512    0.5313    0.0000 F   0  0  0  0  0  0  0  0  0  0  0  0
    8.6212   -2.3425    0.0000 F   0  0  0  0  0  0  0  0  0  0  0  0
    4.4137    3.4050    0.0000 O   0  0  0  0  0  0  0  0  0  0  0  0
    3.0800    1.0950    0.0000 O   0  0  0  0  0  0  0  0  0  0  0  0
    6.5175   -1.7787    0.0000 C   0  0  0  0  0  0  0  0  0  0  0  0
    5.7475   -0.4450    0.0000 C   0  0  0  0  0  0  0  0  0  0  0  0
    7.8512   -1.0087    0.0000 C   0  0  0  0  0  0  0  0  0  0  0  0
    5.1837   -2.5487    0.0000 C   0  0  0  0  0  0  0  0  0  0  0  0
    5.7475    1.0950    0.0000 C   0  0  0  0  0  0  0  0  0  0  0  0
    4.4137    1.8650    0.0000 C   0  0  0  0  0  0  0  0  0  0  0  0
  1 10  1  0  0  0  0
  2 13  1  0  0  0  0
  3 13  1  0  0  0  0
  4 13  1  0  0  0  0
  5 12  1  0  0  0  0
  6 12  1  0  0  0  0
  7 12  1  0  0  0  0
  8 15  1  0  0  0  0
  9 15  2  0  0  0  0
 10 11  1  0  0  0  0
 10 12  1  0  0  0  0
 10 13  1  0  0  0  0
 11 14  1  0  0  0  0
 14 15  1  0  0  0  0
M  END
>  <INPUT>
DTXSID80380256

>  <FOUND_BY>
DSSTox_Substance_Id

>  <DTXSID>
DTXSID80380256

>  <PREFERRED_NAME>
4,4-bis(Trifluoromethyl)-4-fluoropropanoic acid

>  <CASRN>
243139-62-0

>  <INCHIKEY>
ZKMKCYOZMOVHGJ-UHFFFAOYSA-N

>  <IUPAC_NAME>
4,5,5,5-Tetrafluoro-4-(trifluoromethyl)pentanoic acid

>  <SMILES>
OC(=O)CCC(F)(C(F)(F)F)C(F)(F)F

>  <INCHI_STRING>
InChI=1S/C6H5F7O2/c7-4(5(8,9)10,6(11,12)13)2-1-3(14)15/h1-2H2,(H,14,15)

>  <MOLECULAR_FORMULA>
C6H5F7O2

>  <AVERAGE_MASS>
242.093

>  <MONOISOTOPIC_MASS>
242.017776542

>  <MOL_FILE>
MOL_FILE

$$$$

  -INDIGO-02112615072D

 40 39  0  0  0  0  0  0  0  0999 V2000
   10.3950   -1.3337    0.0000 O   0  0  0  0  0  0  0  0  0  0  0  0
    9.6250    0.0000    0.0000 C   0  0  0  0  0  0  0  0  0  0  0  0
   10.3950    1.3336    0.0000 O   0  0  0  0  0  0  0  0  0  0  0  0
    8.0850    0.0000    0.0000 C   0  0  0  0  0  0  0  0  0  0  0  0
    8.0850    1.5400    0.0000 F   0  0  0  0  0  0  0  0  0  0  0  0
    8.0850   -1.5400    0.0000 F   0  0  0  0  0  0  0  0  0  0  0  0
    6.5450    0.0000    0.0000 C   0  0  0  0  0  0  0  0  0  0  0  0
    6.5450    1.5400    0.0000 F   0  0  0  0  0  0  0  0  0  0  0  0
    6.5450   -1.5400    0.0000 F   0  0  0  0  0  0  0  0  0  0  0  0
    5.0050    0.0000    0.0000 C   0  0  0  0  0  0  0  0  0  0  0  0
    5.0050    1.5400    0.0000 F   0  0  0  0  0  0  0  0  0  0  0  0
    5.0050   -1.5400    0.0000 F   0  0  0  0  0  0  0  0  0  0  0  0
    3.4650    0.0000    0.0000 C   0  0  0  0  0  0  0  0  0  0  0  0
    3.4650    1.5400    0.0000 F   0  0  0  0  0  0  0  0  0  0  0  0
    3.4650   -1.5400    0.0000 F   0  0  0  0  0  0  0  0  0  0  0  0
    1.9250    0.0000    0.0000 C   0  0  0  0  0  0  0  0  0  0  0  0
    1.9250    1.5400    0.0000 F   0  0  0  0  0  0  0  0  0  0  0  0
    1.9250   -1.5400    0.0000 F   0  0  0  0  0  0  0  0  0  0  0  0
    0.3850    0.0000    0.0000 C   0  0  0  0  0  0  0  0  0  0  0  0
    0.3850    1.5400    0.0000 F   0  0  0  0  0  0  0  0  0  0  0  0
    0.3850   -1.5400    0.0000 F   0  0  0  0  0  0  0  0  0  0  0  0
   -1.1550    0.0000    0.0000 C   0  0  0  0  0  0  0  0  0  0  0  0
   -1.1550    1.5400    0.0000 F   0  0  0  0  0  0  0  0  0  0  0  0
   -1.1550   -1.5400    0.0000 F   0  0  0  0  0  0  0  0  0  0  0  0
   -2.6950    0.0000    0.0000 C   0  0  0  0  0  0  0  0  0  0  0  0
   -2.6950    1.5400    0.0000 F   0  0  0  0  0  0  0  0  0  0  0  0
   -2.6950   -1.5400    0.0000 F   0  0  0  0  0  0  0  0  0  0  0  0
   -4.2350    0.0000    0.0000 C   0  0  0  0  0  0  0  0  0  0  0  0
   -4.2350    1.5400    0.0000 F   0  0  0  0  0  0  0  0  0  0  0  0
   -4.2350   -1.5400    0.0000 F   0  0  0  0  0  0  0  0  0  0  0  0
   -5.7750    0.0000    0.0000 C   0  0  0  0  0  0  0  0  0  0  0  0
   -5.7750    1.5400    0.0000 F   0  0  0  0  0  0  0  0  0  0  0  0
   -5.7750   -1.5400    0.0000 F   0  0  0  0  0  0  0  0  0  0  0  0
   -7.3150    0.0000    0.0000 C   0  0  0  0  0  0  0  0  0  0  0  0
   -7.3150    1.5400    0.0000 F   0  0  0  0  0  0  0  0  0  0  0  0
   -7.3150   -1.5400    0.0000 F   0  0  0  0  0  0  0  0  0  0  0  0
   -8.8550    0.0000    0.0000 C   0  0  0  0  0  0  0  0  0  0  0  0
  -10.3950    0.0000    0.0000 F   0  0  0  0  0  0  0  0  0  0  0  0
   -8.8550    1.5400    0.0000 F   0  0  0  0  0  0  0  0  0  0  0  0
   -8.8550   -1.5400    0.0000 F   0  0  0  0  0  0  0  0  0  0  0  0
  1  2  1  0  0  0  0
  2  3  2  0  0  0  0
  2  4  1  0  0  0  0
  4  5  1  0  0  0  0
  4  6  1  0  0  0  0
  4  7  1  0  0  0  0
  7  8  1  0  0  0  0
  7  9  1  0  0  0  0
  7 10  1  0  0  0  0
 10 11  1  0  0  0  0
 10 12  1  0  0  0  0
 10 13  1  0  0  0  0
 13 14  1  0  0  0  0
 13 15  1  0  0  0  0
 13 16  1  0  0  0  0
 16 17  1  0  0  0  0
 16 18  1  0  0  0  0
 16 19  1  0  0  0  0
 19 20  1  0  0  0  0
 19 21  1  0  0  0  0
 19 22  1  0  0  0  0
 22 23  1  0  0  0  0
 22 24  1  0  0  0  0
 22 25  1  0  0  0  0
 25 26  1  0  0  0  0
 25 27  1  0  0  0  0
 25 28  1  0  0  0  0
 28 29  1  0  0  0  0
 28 30  1  0  0  0  0
 28 31  1  0  0  0  0
 31 32  1  0  0  0  0
 31 33  1  0  0  0  0
 31 34  1  0  0  0  0
 34 35  1  0  0  0  0
 34 36  1  0  0  0  0
 34 37  1  0  0  0  0
 37 38  1  0  0  0  0
 37 39  1  0  0  0  0
 37 40  1  0  0  0  0
M  END
>  <INPUT>
DTXSID90868151

>  <FOUND_BY>
DSSTox_Substance_Id

>  <DTXSID>
DTXSID90868151

>  <PREFERRED_NAME>
Perfluorotridecanoic acid

>  <CASRN>
72629-94-8

>  <INCHIKEY>
LVDGGZAZAYHXEY-UHFFFAOYSA-N

>  <IUPAC_NAME>
Pentacosafluorotridecanoic acid

>  <SMILES>
OC(=O)C(F)(F)C(F)(F)C(F)(F)C(F)(F)C(F)(F)C(F)(F)C(F)(F)C(F)(F)C(F)(F)C(F)(F)C(F)(F)C(F)(F)F

>  <INCHI_STRING>
InChI=1S/C13HF25O2/c14-2(15,1(39)40)3(16,17)4(18,19)5(20,21)6(22,23)7(24,25)8(26,27)9(28,29)10(30,31)11(32,33)12(34,35)13(36,37)38/h(H,39,40)


>  <MOLECULAR_FORMULA>
C13HF25O2

>  <AVERAGE_MASS>
664.109

>  <MONOISOTOPIC_MASS>
663.957733347

>  <MOL_FILE>
MOL_FILE

$$$$

  -INDIGO-02112615072D

 18 17  0  0  0  0  0  0  0  0999 V2000
    6.3112    0.6069    0.0000 F   0  0  0  0  0  0  0  0  0  0  0  0
    7.8512   -2.0606    0.0000 F   0  0  0  0  0  0  0  0  0  0  0  0
    7.6449    1.3769    0.0000 F   0  0  0  0  0  0  0  0  0  0  0  0
    9.1849   -1.2906    0.0000 F   0  0  0  0  0  0  0  0  0  0  0  0
    4.9775   -0.1633    0.0000 F   0  0  0  0  0  0  0  0  0  0  0  0
    6.5175   -2.8306    0.0000 F   0  0  0  0  0  0  0  0  0  0  0  0
   10.5187   -0.5206    0.0000 F   0  0  0  0  0  0  0  0  0  0  0  0
    8.9785    2.1469    0.0000 F   0  0  0  0  0  0  0  0  0  0  0  0
    3.0800   -3.0369    0.0000 F   0  0  0  0  0  0  0  0  0  0  0  0
    3.6437   -0.9333    0.0000 F   0  0  0  0  0  0  0  0  0  0  0  0
    5.1837   -3.6006    0.0000 F   0  0  0  0  0  0  0  0  0  0  0  0
   11.0824    3.1231    0.0000 O   0  0  0  0  0  0  0  0  0  0  0  0
    7.0812   -0.7269    0.0000 C   0  0  0  0  0  0  0  0  0  0  0  0
    8.4149    0.0431    0.0000 C   0  0  0  0  0  0  0  0  0  0  0  0
    9.7485    0.8131    0.0000 C   0  0  0  0  0  0  0  0  0  0  0  0
    5.7475   -1.4969    0.0000 C   0  0  0  0  0  0  0  0  0  0  0  0
   11.0824    1.5831    0.0000 C   0  0  0  0  0  0  0  0  0  0  0  0
    4.4137   -2.2669    0.0000 C   0  0  0  0  0  0  0  0  0  0  0  0
  1 13  1  0  0  0  0
  2 13  1  0  0  0  0
  3 14  1  0  0  0  0
  4 14  1  0  0  0  0
  5 16  1  0  0  0  0
  6 16  1  0  0  0  0
  7 15  1  0  0  0  0
  8 15  1  0  0  0  0
  9 18  1  0  0  0  0
 10 18  1  0  0  0  0
 11 18  1  0  0  0  0
 12 17  2  0  0  0  0
 13 14  1  0  0  0  0
 13 16  1  0  0  0  0
 14 15  1  0  0  0  0
 15 17  1  0  0  0  0
 16 18  1  0  0  0  0
M  END
>  <INPUT>
DTXSID80590878

>  <FOUND_BY>
DSSTox_Substance_Id

>  <DTXSID>
DTXSID80590878

>  <PREFERRED_NAME>
Perfluorohexanal

>  <CASRN>
754-79-0

>  <INCHIKEY>
OMBYOPNOROKVEG-UHFFFAOYSA-N

>  <IUPAC_NAME>
2,2,3,3,4,4,5,5,6,6,6-Undecafluorohexanal

>  <SMILES>
FC(F)(F)C(F)(F)C(F)(F)C(F)(F)C(F)(F)C=O

>  <INCHI_STRING>
InChI=1S/C6HF11O/c7-2(8,1-18)3(9,10)4(11,12)5(13,14)6(15,16)17/h1H

>  <MOLECULAR_FORMULA>
C6HF11O

>  <AVERAGE_MASS>
298.055

>  <MONOISOTOPIC_MASS>
297.985174445

>  <MOL_FILE>
MOL_FILE

$$$$

  -INDIGO-02112615072D

 25 24  0  0  0  0  0  0  0  0999 V2000
    0.2063  -11.5500    0.0000 O   0  0  0  0  0  0  0  0  0  0  0  0
    1.5400  -10.7800    0.0000 C   0  0  0  0  0  0  0  0  0  0  0  0
    2.8737  -11.5500    0.0000 F   0  0  0  0  0  0  0  0  0  0  0  0
    1.5400   -9.2400    0.0000 C   0  0  0  0  0  0  0  0  0  0  0  0
    3.0800   -9.2400    0.0000 F   0  0  0  0  0  0  0  0  0  0  0  0
    0.0000   -9.2400    0.0000 F   0  0  0  0  0  0  0  0  0  0  0  0
    1.5400   -7.7000    0.0000 C   0  0  0  0  0  0  0  0  0  0  0  0
    3.0800   -7.7000    0.0000 F   0  0  0  0  0  0  0  0  0  0  0  0
    0.0000   -7.7000    0.0000 F   0  0  0  0  0  0  0  0  0  0  0  0
    1.5400   -6.1600    0.0000 C   0  0  0  0  0  0  0  0  0  0  0  0
    3.0800   -6.1600    0.0000 F   0  0  0  0  0  0  0  0  0  0  0  0
    0.0000   -6.1600    0.0000 F   0  0  0  0  0  0  0  0  0  0  0  0
    1.5400   -4.6200    0.0000 C   0  0  0  0  0  0  0  0  0  0  0  0
    3.0800   -4.6200    0.0000 F   0  0  0  0  0  0  0  0  0  0  0  0
    0.0000   -4.6200    0.0000 F   0  0  0  0  0  0  0  0  0  0  0  0
    1.5400   -3.0800    0.0000 C   0  0  0  0  0  0  0  0  0  0  0  0
    3.0800   -3.0800    0.0000 F   0  0  0  0  0  0  0  0  0  0  0  0
    0.0000   -3.0800    0.0000 F   0  0  0  0  0  0  0  0  0  0  0  0
    1.5400   -1.5400    0.0000 C   0  0  0  0  0  0  0  0  0  0  0  0
    3.0800   -1.5400    0.0000 F   0  0  0  0  0  0  0  0  0  0  0  0
    0.0000   -1.5400    0.0000 F   0  0  0  0  0  0  0  0  0  0  0  0
    1.5400    0.0000    0.0000 C   0  0  0  0  0  0  0  0  0  0  0  0
    1.5400    1.5400    0.0000 F   0  0  0  0  0  0  0  0  0  0  0  0
    3.0800    0.0000    0.0000 F   0  0  0  0  0  0  0  0  0  0  0  0
    0.0000    0.0000    0.0000 F   0  0  0  0  0  0  0  0  0  0  0  0
  1  2  2  0  0  0  0
  2  3  1  0  0  0  0
  2  4  1  0  0  0  0
  4  5  1  0  0  0  0
  4  6  1  0  0  0  0
  4  7  1  0  0  0  0
  7  8  1  0  0  0  0
  7  9  1  0  0  0  0
  7 10  1  0  0  0  0
 10 11  1  0  0  0  0
 10 12  1  0  0  0  0
 10 13  1  0  0  0  0
 13 14  1  0  0  0  0
 13 15  1  0  0  0  0
 13 16  1  0  0  0  0
 16 17  1  0  0  0  0
 16 18  1  0  0  0  0
 16 19  1  0  0  0  0
 19 20  1  0  0  0  0
 19 21  1  0  0  0  0
 19 22  1  0  0  0  0
 22 23  1  0  0  0  0
 22 24  1  0  0  0  0
 22 25  1  0  0  0  0
M  END
>  <INPUT>
DTXSID0059829

>  <FOUND_BY>
DSSTox_Substance_Id

>  <DTXSID>
DTXSID0059829

>  <PREFERRED_NAME>
Perfluorooctanoyl fluoride

>  <CASRN>
335-66-0

>  <INCHIKEY>
ZILWJLIFAGWGLE-UHFFFAOYSA-N

>  <IUPAC_NAME>
Pentadecafluorooctanoyl fluoride

>  <SMILES>
FC(=O)C(F)(F)C(F)(F)C(F)(F)C(F)(F)C(F)(F)C(F)(F)C(F)(F)F

>  <INCHI_STRING>
InChI=1S/C8F16O/c9-1(25)2(10,11)3(12,13)4(14,15)5(16,17)6(18,19)7(20,21)8(22,23)24

>  <MOLECULAR_FORMULA>
C8F16O

>  <AVERAGE_MASS>
416.061

>  <MONOISOTOPIC_MASS>
415.969365228

>  <MOL_FILE>
MOL_FILE

$$$$

  -INDIGO-02112615072D

 32 31  0  0  0  0  0  0  0  0999 V2000
    8.6210    4.9773    0.0000 O   0  0  0  0  0  0  0  0  0  0  0  0
    8.6210    3.4373    0.0000 C   0  0  0  0  0  0  0  0  0  0  0  0
    7.2873    2.6673    0.0000 O   0  0  0  0  0  0  0  0  0  0  0  0
    5.9537    3.4373    0.0000 C   0  0  0  0  0  0  0  0  0  0  0  0
    4.6200    2.6673    0.0000 C   0  0  0  0  0  0  0  0  0  0  0  0
    3.2863    3.4373    0.0000 C   0  0  0  0  0  0  0  0  0  0  0  0
    2.5163    2.1037    0.0000 F   0  0  0  0  0  0  0  0  0  0  0  0
    4.0563    4.7710    0.0000 F   0  0  0  0  0  0  0  0  0  0  0  0
    1.9527    4.2073    0.0000 C   0  0  0  0  0  0  0  0  0  0  0  0
    1.1827    2.8737    0.0000 F   0  0  0  0  0  0  0  0  0  0  0  0
    2.7227    5.5410    0.0000 F   0  0  0  0  0  0  0  0  0  0  0  0
    0.6190    4.9773    0.0000 C   0  0  0  0  0  0  0  0  0  0  0  0
   -0.1510    3.6437    0.0000 F   0  0  0  0  0  0  0  0  0  0  0  0
    1.3890    6.3110    0.0000 F   0  0  0  0  0  0  0  0  0  0  0  0
   -0.7147    5.7473    0.0000 C   0  0  0  0  0  0  0  0  0  0  0  0
   -1.4847    4.4137    0.0000 F   0  0  0  0  0  0  0  0  0  0  0  0
    0.0553    7.0810    0.0000 F   0  0  0  0  0  0  0  0  0  0  0  0
   -2.0485    6.5173    0.0000 C   0  0  0  0  0  0  0  0  0  0  0  0
   -2.8185    5.1837    0.0000 F   0  0  0  0  0  0  0  0  0  0  0  0
   -1.2785    7.8510    0.0000 F   0  0  0  0  0  0  0  0  0  0  0  0
   -3.3820    7.2873    0.0000 C   0  0  0  0  0  0  0  0  0  0  0  0
   -4.1520    5.9537    0.0000 F   0  0  0  0  0  0  0  0  0  0  0  0
   -2.6120    8.6210    0.0000 F   0  0  0  0  0  0  0  0  0  0  0  0
   -4.7158    8.0573    0.0000 C   0  0  0  0  0  0  0  0  0  0  0  0
   -5.4858    6.7237    0.0000 F   0  0  0  0  0  0  0  0  0  0  0  0
   -3.9458    9.3910    0.0000 F   0  0  0  0  0  0  0  0  0  0  0  0
   -6.0495    8.8273    0.0000 C   0  0  0  0  0  0  0  0  0  0  0  0
   -7.3830    9.5973    0.0000 F   0  0  0  0  0  0  0  0  0  0  0  0
   -6.8195    7.4937    0.0000 F   0  0  0  0  0  0  0  0  0  0  0  0
   -5.2795   10.1610    0.0000 F   0  0  0  0  0  0  0  0  0  0  0  0
    9.9547    2.6673    0.0000 C   0  0  0  0  0  0  0  0  0  0  0  0
   11.2885    3.4373    0.0000 C   0  0  0  0  0  0  0  0  0  0  0  0
  1  2  2  0  0  0  0
  2  3  1  0  0  0  0
  3  4  1  0  0  0  0
  4  5  1  0  0  0  0
  5  6  1  0  0  0  0
  6  7  1  0  0  0  0
  6  8  1  0  0  0  0
  6  9  1  0  0  0  0
  9 10  1  0  0  0  0
  9 11  1  0  0  0  0
  9 12  1  0  0  0  0
 12 13  1  0  0  0  0
 12 14  1  0  0  0  0
 12 15  1  0  0  0  0
 15 16  1  0  0  0  0
 15 17  1  0  0  0  0
 15 18  1  0  0  0  0
 18 19  1  0  0  0  0
 18 20  1  0  0  0  0
 18 21  1  0  0  0  0
 21 22  1  0  0  0  0
 21 23  1  0  0  0  0
 21 24  1  0  0  0  0
 24 25  1  0  0  0  0
 24 26  1  0  0  0  0
 24 27  1  0  0  0  0
 27 28  1  0  0  0  0
 27 29  1  0  0  0  0
 27 30  1  0  0  0  0
  2 31  1  0  0  0  0
 31 32  2  0  0  0  0
M  END
>  <INPUT>
DTXSID5067348

>  <FOUND_BY>
DSSTox_Substance_Id

>  <DTXSID>
DTXSID5067348

>  <PREFERRED_NAME>
2-(Perfluorooctyl)ethyl acrylate

>  <CASRN>
27905-45-9

>  <INCHIKEY>
QUKRIOLKOHUUBM-UHFFFAOYSA-N

>  <IUPAC_NAME>
3,3,4,4,5,5,6,6,7,7,8,8,9,9,10,10,10-Heptadecafluorodecyl prop-2-enoate

>  <SMILES>
FC(F)(F)C(F)(F)C(F)(F)C(F)(F)C(F)(F)C(F)(F)C(F)(F)C(F)(F)CCOC(=O)C=C

>  <INCHI_STRING>
InChI=1S/C13H7F17O2/c1-2-5(31)32-4-3-6(14,15)7(16,17)8(18,19)9(20,21)10(22,23)11(24,25)12(26,27)13(28,29)30/h2H,1,3-4H2


>  <MOLECULAR_FORMULA>
C13H7F17O2

>  <AVERAGE_MASS>
518.17

>  <MONOISOTOPIC_MASS>
518.017458236

>  <MOL_FILE>
MOL_FILE

$$$$

  -INDIGO-02112615072D

 16 15  0  0  0  0  0  0  0  0999 V2000
    7.1706    1.8735    0.0000 F   0  0  0  0  0  0  0  0  0  0  0  0
    7.1705   -1.2066    0.0000 F   0  0  0  0  0  0  0  0  0  0  0  0
    5.6305    1.8735    0.0000 F   0  0  0  0  0  0  0  0  0  0  0  0
    5.6305   -1.2066    0.0000 F   0  0  0  0  0  0  0  0  0  0  0  0
    8.7106    1.8735    0.0000 F   0  0  0  0  0  0  0  0  0  0  0  0
    8.7106   -1.2066    0.0000 F   0  0  0  0  0  0  0  0  0  0  0  0
    3.3204    1.6672    0.0000 F   0  0  0  0  0  0  0  0  0  0  0  0
    3.3204   -1.0002    0.0000 F   0  0  0  0  0  0  0  0  0  0  0  0
   11.0207   -1.0003    0.0000 O   0  0  0  0  0  0  0  0  0  0  0  0
   11.0205    1.6672    0.0000 O   0  0  0  0  0  0  0  0  0  0  0  0
    7.1705    0.3334    0.0000 C   0  0  0  0  0  0  0  0  0  0  0  0
    5.6305    0.3335    0.0000 C   0  0  0  0  0  0  0  0  0  0  0  0
    8.7106    0.3334    0.0000 C   0  0  0  0  0  0  0  0  0  0  0  0
    4.0904    0.3335    0.0000 C   0  0  0  0  0  0  0  0  0  0  0  0
   10.2505    0.3335    0.0000 C   0  0  0  0  0  0  0  0  0  0  0  0
   12.5607   -1.0004    0.0000 C   0  0  0  0  0  0  0  0  0  0  0  0
  1 11  1  0  0  0  0
  2 11  1  0  0  0  0
  3 12  1  0  0  0  0
  4 12  1  0  0  0  0
  5 13  1  0  0  0  0
  6 13  1  0  0  0  0
  7 14  1  0  0  0  0
  8 14  1  0  0  0  0
  9 15  1  0  0  0  0
  9 16  1  0  0  0  0
 10 15  2  0  0  0  0
 11 12  1  0  0  0  0
 11 13  1  0  0  0  0
 12 14  1  0  0  0  0
 13 15  1  0  0  0  0
M  END
>  <INPUT>
DTXSID50379556

>  <FOUND_BY>
DSSTox_Substance_Id

>  <DTXSID>
DTXSID50379556

>  <PREFERRED_NAME>
Methyl 5H-perfluoropentanoate

>  <CASRN>
54822-22-9

>  <INCHIKEY>
NARNQFAFGNRNNN-UHFFFAOYSA-N

>  <IUPAC_NAME>
Methyl 2,2,3,3,4,4,5,5-octafluoropentanoate

>  <SMILES>
COC(=O)C(F)(F)C(F)(F)C(F)(F)C(F)F

>  <INCHI_STRING>
InChI=1S/C6H4F8O2/c1-16-3(15)5(11,12)6(13,14)4(9,10)2(7)8/h2H,1H3


>  <MOLECULAR_FORMULA>
C6H4F8O2

>  <AVERAGE_MASS>
260.083

>  <MONOISOTOPIC_MASS>
260.008354673

>  <MOL_FILE>
MOL_FILE

$$$$

  -INDIGO-02112615072D

 23 22  0  0  0  0  0  0  0  0999 V2000
   12.4161    2.1144    0.0000 S   0  0  0  0  0  0  0  0  0  0  0  0
    7.6449    1.1381    0.0000 F   0  0  0  0  0  0  0  0  0  0  0  0
    9.1849   -1.5292    0.0000 F   0  0  0  0  0  0  0  0  0  0  0  0
    8.9785    1.9081    0.0000 F   0  0  0  0  0  0  0  0  0  0  0  0
   10.5187   -0.7592    0.0000 F   0  0  0  0  0  0  0  0  0  0  0  0
    6.3112    0.3681    0.0000 F   0  0  0  0  0  0  0  0  0  0  0  0
    7.8512   -2.2994    0.0000 F   0  0  0  0  0  0  0  0  0  0  0  0
   11.8524    0.0108    0.0000 F   0  0  0  0  0  0  0  0  0  0  0  0
   10.3124    2.6781    0.0000 F   0  0  0  0  0  0  0  0  0  0  0  0
    4.9775   -0.4019    0.0000 F   0  0  0  0  0  0  0  0  0  0  0  0
    6.5175   -3.0694    0.0000 F   0  0  0  0  0  0  0  0  0  0  0  0
    3.0800   -3.2756    0.0000 F   0  0  0  0  0  0  0  0  0  0  0  0
    3.6437   -1.1719    0.0000 F   0  0  0  0  0  0  0  0  0  0  0  0
    5.1837   -3.8394    0.0000 F   0  0  0  0  0  0  0  0  0  0  0  0
   13.1861    0.7808    0.0000 O   0  0  0  0  0  0  0  0  0  0  0  0
   11.6461    3.4481    0.0000 O   0  0  0  0  0  0  0  0  0  0  0  0
   13.7497    2.8846    0.0000 N   0  0  0  0  0  0  0  0  0  0  0  0
    8.4149   -0.1956    0.0000 C   0  0  0  0  0  0  0  0  0  0  0  0
    9.7485    0.5744    0.0000 C   0  0  0  0  0  0  0  0  0  0  0  0
    7.0812   -0.9656    0.0000 C   0  0  0  0  0  0  0  0  0  0  0  0
   11.0824    1.3444    0.0000 C   0  0  0  0  0  0  0  0  0  0  0  0
    5.7475   -1.7356    0.0000 C   0  0  0  0  0  0  0  0  0  0  0  0
    4.4137   -2.5056    0.0000 C   0  0  0  0  0  0  0  0  0  0  0  0
  1 15  2  0  0  0  0
  1 16  2  0  0  0  0
  1 17  1  0  0  0  0
  1 21  1  0  0  0  0
  2 18  1  0  0  0  0
  3 18  1  0  0  0  0
  4 19  1  0  0  0  0
  5 19  1  0  0  0  0
  6 20  1  0  0  0  0
  7 20  1  0  0  0  0
  8 21  1  0  0  0  0
  9 21  1  0  0  0  0
 10 22  1  0  0  0  0
 11 22  1  0  0  0  0
 12 23  1  0  0  0  0
 13 23  1  0  0  0  0
 14 23  1  0  0  0  0
 18 19  1  0  0  0  0
 18 20  1  0  0  0  0
 19 21  1  0  0  0  0
 20 22  1  0  0  0  0
 22 23  1  0  0  0  0
M  END
>  <INPUT>
DTXSID50469320

>  <FOUND_BY>
DSSTox_Substance_Id

>  <DTXSID>
DTXSID50469320

>  <PREFERRED_NAME>
Perfluorohexanesulfonamide

>  <CASRN>
41997-13-1

>  <INCHIKEY>
WDZLGCSJJWEQJO-UHFFFAOYSA-N

>  <IUPAC_NAME>
1,1,2,2,3,3,4,4,5,5,6,6,6-Tridecafluorohexane-1-sulfonamide

>  <SMILES>
NS(=O)(=O)C(F)(F)C(F)(F)C(F)(F)C(F)(F)C(F)(F)C(F)(F)F

>  <INCHI_STRING>
InChI=1S/C6H2F13NO2S/c7-1(8,3(11,12)5(15,16)17)2(9,10)4(13,14)6(18,19)23(20,21)22/h(H2,20,21,22)


>  <MOLECULAR_FORMULA>
C6H2F13NO2S

>  <AVERAGE_MASS>
399.13

>  <MONOISOTOPIC_MASS>
398.959865601

>  <MOL_FILE>
MOL_FILE

$$$$

  -INDIGO-02112615072D

 29 28  0  0  0  0  0  0  0  0999 V2000
    4.6652   -0.0619    0.0000 C   0  0  0  0  0  0  0  0  0  0  0  0
    3.1252   -0.0619    0.0000 C   0  0  0  0  0  0  0  0  0  0  0  0
    1.5852   -0.0619    0.0000 C   0  0  0  0  0  0  0  0  0  0  0  0
    0.0452   -0.0619    0.0000 C   0  0  0  0  0  0  0  0  0  0  0  0
   -1.4948   -0.0619    0.0000 C   0  0  0  0  0  0  0  0  0  0  0  0
   -3.0348   -0.0619    0.0000 C   0  0  0  0  0  0  0  0  0  0  0  0
   -4.5748   -0.0619    0.0000 C   0  0  0  0  0  0  0  0  0  0  0  0
   -6.1148   -0.0619    0.0000 C   0  0  0  0  0  0  0  0  0  0  0  0
    6.2052   -0.0619    0.0000 S   0  0  0  0  0  0  0  0  0  0  0  0
    7.7452   -0.0619    0.0000 O   0  0  0  0  0  0  0  0  0  0  0  0
    6.2052    1.4781    0.0000 O   0  0  0  0  0  0  0  0  0  0  0  0
    6.2052   -1.6019    0.0000 O   0  0  0  0  0  0  0  0  0  0  0  0
    4.6652    1.4781    0.0000 F   0  0  0  0  0  0  0  0  0  0  0  0
    4.6652   -1.6019    0.0000 F   0  0  0  0  0  0  0  0  0  0  0  0
    3.1252    1.4781    0.0000 F   0  0  0  0  0  0  0  0  0  0  0  0
    3.1252   -1.6019    0.0000 F   0  0  0  0  0  0  0  0  0  0  0  0
    1.5852    1.4781    0.0000 F   0  0  0  0  0  0  0  0  0  0  0  0
    1.5852   -1.6019    0.0000 F   0  0  0  0  0  0  0  0  0  0  0  0
    0.0452    1.4781    0.0000 F   0  0  0  0  0  0  0  0  0  0  0  0
    0.0452   -1.6019    0.0000 F   0  0  0  0  0  0  0  0  0  0  0  0
   -1.4948    1.4781    0.0000 F   0  0  0  0  0  0  0  0  0  0  0  0
   -1.4948   -1.6019    0.0000 F   0  0  0  0  0  0  0  0  0  0  0  0
   -3.0348    1.4781    0.0000 F   0  0  0  0  0  0  0  0  0  0  0  0
   -3.0348   -1.6019    0.0000 F   0  0  0  0  0  0  0  0  0  0  0  0
   -4.5748    1.4781    0.0000 F   0  0  0  0  0  0  0  0  0  0  0  0
   -4.5748   -1.6019    0.0000 F   0  0  0  0  0  0  0  0  0  0  0  0
   -7.6548   -0.0619    0.0000 F   0  0  0  0  0  0  0  0  0  0  0  0
   -6.1148    1.4781    0.0000 F   0  0  0  0  0  0  0  0  0  0  0  0
   -6.1148   -1.6019    0.0000 F   0  0  0  0  0  0  0  0  0  0  0  0
  2  1  1  0  0  0  0
  9  1  1  0  0  0  0
 13  1  1  0  0  0  0
 14  1  1  0  0  0  0
  3  2  1  0  0  0  0
 15  2  1  0  0  0  0
 16  2  1  0  0  0  0
  4  3  1  0  0  0  0
 17  3  1  0  0  0  0
 18  3  1  0  0  0  0
  5  4  1  0  0  0  0
 19  4  1  0  0  0  0
 20  4  1  0  0  0  0
  6  5  1  0  0  0  0
 21  5  1  0  0  0  0
 22  5  1  0  0  0  0
  7  6  1  0  0  0  0
 23  6  1  0  0  0  0
 24  6  1  0  0  0  0
  8  7  1  0  0  0  0
 25  7  1  0  0  0  0
 26  7  1  0  0  0  0
 27  8  1  0  0  0  0
 28  8  1  0  0  0  0
 29  8  1  0  0  0  0
 10  9  1  0  0  0  0
 11  9  2  0  0  0  0
 12  9  2  0  0  0  0
M  CHG  1  10  -1
M  END
>  <INPUT>
DTXSID80108992

>  <FOUND_BY>
DSSTox_Substance_Id

>  <DTXSID>
DTXSID80108992

>  <PREFERRED_NAME>
Perfluorooctanesulfonate

>  <CASRN>
45298-90-6

>  <INCHIKEY>
YFSUTJLHUFNCNZ-UHFFFAOYSA-M

>  <IUPAC_NAME>
Heptadecafluorooctane-1-sulfonatato

>  <SMILES>
[O-]S(=O)(=O)C(F)(F)C(F)(F)C(F)(F)C(F)(F)C(F)(F)C(F)(F)C(F)(F)C(F)(F)F

>  <INCHI_STRING>
InChI=1S/C8HF17O3S/c9-1(10,3(13,14)5(17,18)7(21,22)23)2(11,12)4(15,16)6(19,20)8(24,25)29(26,27)28/h(H,26,27,28)/p-1


>  <MOLECULAR_FORMULA>
C8F17O3S

>  <AVERAGE_MASS>
499.12

>  <MONOISOTOPIC_MASS>
498.930217385

>  <MOL_FILE>
MOL_FILE

$$$$

  -INDIGO-02112615072D

 36 34  0  0  0  0  0  0  0  0999 V2000
    0.0000    0.9980    0.0000 C   0  0  0  0  0  0  0  0  0  0  0  0
    1.5400    1.0026    0.0000 C   0  0  0  0  0  0  0  0  0  0  0  0
   -1.5453    1.0027    0.0000 C   0  0  0  0  0  0  0  0  0  0  0  0
   -0.0046    2.5380    0.0000 F   0  0  0  0  0  0  0  0  0  0  0  0
    0.0046   -0.5420    0.0000 F   0  0  0  0  0  0  0  0  0  0  0  0
    3.0946    1.0028    0.0000 C   0  0  0  0  0  0  0  0  0  0  0  0
    1.5407   -0.5518    0.0000 F   0  0  0  0  0  0  0  0  0  0  0  0
    1.5500    2.5387    0.0000 F   0  0  0  0  0  0  0  0  0  0  0  0
   -3.0946    0.9932    0.0000 C   0  0  0  0  0  0  0  0  0  0  0  0
   -1.5406    2.5480    0.0000 F   0  0  0  0  0  0  0  0  0  0  0  0
   -1.5498   -0.5426    0.0000 F   0  0  0  0  0  0  0  0  0  0  0  0
    4.6491    1.0034    0.0000 C   0  0  0  0  0  0  0  0  0  0  0  0
    3.0954   -0.5516    0.0000 F   0  0  0  0  0  0  0  0  0  0  0  0
    3.0995    2.5488    0.0000 F   0  0  0  0  0  0  0  0  0  0  0  0
   -4.6491    0.9926    0.0000 C   0  0  0  0  0  0  0  0  0  0  0  0
   -3.0954    2.5478    0.0000 F   0  0  0  0  0  0  0  0  0  0  0  0
   -3.0995   -0.5526    0.0000 F   0  0  0  0  0  0  0  0  0  0  0  0
    6.2038    1.0037    0.0000 C   0  0  0  0  0  0  0  0  0  0  0  0
    4.6498   -0.5510    0.0000 F   0  0  0  0  0  0  0  0  0  0  0  0
    4.6542    2.5490    0.0000 F   0  0  0  0  0  0  0  0  0  0  0  0
   -6.2038    0.9924    0.0000 C   0  0  0  0  0  0  0  0  0  0  0  0
   -4.6498    2.5470    0.0000 F   0  0  0  0  0  0  0  0  0  0  0  0
   -4.6541   -0.5529    0.0000 F   0  0  0  0  0  0  0  0  0  0  0  0
    7.7583    1.0044    0.0000 C   0  0  0  0  0  0  0  0  0  0  0  0
    6.2044   -0.5508    0.0000 F   0  0  0  0  0  0  0  0  0  0  0  0
    6.2087    2.5496    0.0000 F   0  0  0  0  0  0  0  0  0  0  0  0
   -6.2087   -0.5536    0.0000 F   0  0  0  0  0  0  0  0  0  0  0  0
   -6.2044    2.5468    0.0000 F   0  0  0  0  0  0  0  0  0  0  0  0
    7.7633    2.5499    0.0000 F   0  0  0  0  0  0  0  0  0  0  0  0
    7.7590   -0.5501    0.0000 F   0  0  0  0  0  0  0  0  0  0  0  0
    9.3129    1.0046    0.0000 F   0  0  0  0  0  0  0  0  0  0  0  0
   -7.7583    0.9917    0.0000 S   0  0  0  0  0  0  0  0  0  0  0  0
   -7.7633   -0.5538    0.0000 O   0  0  0  0  0  0  0  0  0  0  0  0
   -7.7588    2.5461    0.0000 O   0  0  0  0  0  0  0  0  0  0  0  0
   -9.3129    0.9915    0.0000 O   0  0  0  0  0  0  0  0  0  0  0  0
   -7.8915   -2.5499    0.0000 Na  0  0  0  0  0  0  0  0  0  0  0  0
  1  2  1  0  0  0  0
  1  3  1  0  0  0  0
  1  4  1  0  0  0  0
  1  5  1  0  0  0  0
  2  6  1  0  0  0  0
  2  7  1  0  0  0  0
  2  8  1  0  0  0  0
  3  9  1  0  0  0  0
  3 10  1  0  0  0  0
  3 11  1  0  0  0  0
  6 12  1  0  0  0  0
  6 13  1  0  0  0  0
  6 14  1  0  0  0  0
  9 15  1  0  0  0  0
  9 16  1  0  0  0  0
  9 17  1  0  0  0  0
 12 18  1  0  0  0  0
 12 19  1  0  0  0  0
 12 20  1  0  0  0  0
 15 21  1  0  0  0  0
 15 22  1  0  0  0  0
 15 23  1  0  0  0  0
 18 24  1  0  0  0  0
 18 25  1  0  0  0  0
 18 26  1  0  0  0  0
 21 27  1  0  0  0  0
 21 28  1  0  0  0  0
 24 29  1  0  0  0  0
 24 30  1  0  0  0  0
 24 31  1  0  0  0  0
 21 32  1  0  0  0  0
 32 33  1  0  0  0  0
 32 34  2  0  0  0  0
 32 35  2  0  0  0  0
M  CHG  2  33  -1  36   1
M  END
>  <INPUT>
DTXSID60892443

>  <FOUND_BY>
DSSTox_Substance_Id

>  <DTXSID>
DTXSID60892443

>  <PREFERRED_NAME>
Sodium perfluorodecanesulfonate

>  <CASRN>
2806-15-7

>  <INCHIKEY>
ULYIJZHWHDXAMG-UHFFFAOYSA-M

>  <IUPAC_NAME>
Sodium henicosafluorodecane-1-sulfonate

>  <SMILES>
[Na+].[O-]S(=O)(=O)C(F)(F)C(F)(F)C(F)(F)C(F)(F)C(F)(F)C(F)(F)C(F)(F)C(F)(F)C(F)(F)C(F)(F)F

>  <INCHI_STRING>
InChI=1S/C10HF21O3S.Na/c11-1(12,3(15,16)5(19,20)7(23,24)9(27,28)29)2(13,14)4(17,18)6(21,22)8(25,26)10(30,31)35(32,33)34;/h(H,32,33,34);/q;+1/p-1

>  <MOLECULAR_FORMULA>
C10F21NaO3S

>  <AVERAGE_MASS>
622.12

>  <MONOISOTOPIC_MASS>
621.91305074

>  <MOL_FILE>
MOL_FILE

$$$$

  -INDIGO-02112615072D

 14 13  0  0  0  0  0  0  0  0999 V2000
    6.5175   -2.8737    0.0000 F   0  0  0  0  0  0  0  0  0  0  0  0
    8.4149    0.0000    0.0000 F   0  0  0  0  0  0  0  0  0  0  0  0
    7.0812    0.7700    0.0000 F   0  0  0  0  0  0  0  0  0  0  0  0
    7.8512   -2.1037    0.0000 F   0  0  0  0  0  0  0  0  0  0  0  0
    3.0800   -3.0800    0.0000 F   0  0  0  0  0  0  0  0  0  0  0  0
    3.6437   -0.9765    0.0000 F   0  0  0  0  0  0  0  0  0  0  0  0
    5.1837   -3.6437    0.0000 F   0  0  0  0  0  0  0  0  0  0  0  0
    4.9775   -0.2065    0.0000 O   0  0  0  0  0  0  0  0  0  0  0  0
    5.7475   -1.5400    0.0000 C   0  0  0  0  0  0  0  0  0  0  0  0
    7.0812   -0.7700    0.0000 C   0  0  0  0  0  0  0  0  0  0  0  0
    4.4137   -2.3100    0.0000 C   0  0  0  0  0  0  0  0  0  0  0  0
    4.9775    1.3337    0.0000 C   0  0  0  0  0  0  0  0  0  0  0  0
    3.6437    2.1037    0.0000 C   0  0  0  0  0  0  0  0  0  0  0  0
    3.6437    3.6437    0.0000 C   0  0  0  0  0  0  0  0  0  0  0  0
  1  9  1  0  0  0  0
  2 10  1  0  0  0  0
  3 10  1  0  0  0  0
  4 10  1  0  0  0  0
  5 11  1  0  0  0  0
  6 11  1  0  0  0  0
  7 11  1  0  0  0  0
  8  9  1  0  0  0  0
  8 12  1  0  0  0  0
  9 10  1  0  0  0  0
  9 11  1  0  0  0  0
 12 13  1  0  0  0  0
 13 14  2  0  0  0  0
M  END
>  <INPUT>
DTXSID10370988

>  <FOUND_BY>
DSSTox_Substance_Id

>  <DTXSID>
DTXSID10370988

>  <PREFERRED_NAME>
Allyl perfluoroisopropyl ether

>  <CASRN>
15242-17-8

>  <INCHIKEY>
FXUHCQHWDACOKK-UHFFFAOYSA-N

>  <IUPAC_NAME>
3-[(1,1,1,2,3,3,3-Heptafluoropropan-2-yl)oxy]prop-1-ene

>  <SMILES>
FC(F)(F)C(F)(OCC=C)C(F)(F)F

>  <INCHI_STRING>
InChI=1S/C6H5F7O/c1-2-3-14-4(7,5(8,9)10)6(11,12)13/h2H,1,3H2

>  <MOLECULAR_FORMULA>
C6H5F7O

>  <AVERAGE_MASS>
226.094

>  <MONOISOTOPIC_MASS>
226.022861922

>  <MOL_FILE>
MOL_FILE

$$$$

  -INDIGO-02112615072D

  9  8  0  0  0  0  0  0  0  0999 V2000
    5.8044    0.9486    0.0000 F   0  0  0  0  0  0  0  0  0  0  0  0
    7.3444   -1.7186    0.0000 F   0  0  0  0  0  0  0  0  0  0  0  0
    9.2417    1.1551    0.0000 F   0  0  0  0  0  0  0  0  0  0  0  0
    7.1381    1.7186    0.0000 F   0  0  0  0  0  0  0  0  0  0  0  0
    8.6781   -0.9486    0.0000 F   0  0  0  0  0  0  0  0  0  0  0  0
    3.9069   -0.3851    0.0000 N   0  0  0  0  0  0  0  0  0  0  0  0
    6.5744   -0.3851    0.0000 C   0  0  0  0  0  0  0  0  0  0  0  0
    5.2407   -1.1551    0.0000 C   0  0  0  0  0  0  0  0  0  0  0  0
    7.9081    0.3851    0.0000 C   0  0  0  0  0  0  0  0  0  0  0  0
  1  7  1  0  0  0  0
  2  7  1  0  0  0  0
  3  9  1  0  0  0  0
  4  9  1  0  0  0  0
  5  9  1  0  0  0  0
  6  8  1  0  0  0  0
  7  8  1  0  0  0  0
  7  9  1  0  0  0  0
M  END
>  <INPUT>
DTXSID00195026

>  <FOUND_BY>
DSSTox_Substance_Id

>  <DTXSID>
DTXSID00195026

>  <PREFERRED_NAME>
1H,1H-Perfluoropropylamine

>  <CASRN>
422-03-7

>  <INCHIKEY>
DPQNQLKPUVWGHE-UHFFFAOYSA-N

>  <IUPAC_NAME>
2,2,3,3,3-Pentafluoropropan-1-amine

>  <SMILES>
NCC(F)(F)C(F)(F)F

>  <INCHI_STRING>
InChI=1S/C3H4F5N/c4-2(5,1-9)3(6,7)8/h1,9H2

>  <MOLECULAR_FORMULA>
C3H4F5N

>  <AVERAGE_MASS>
149.064

>  <MONOISOTOPIC_MASS>
149.026389948

>  <MOL_FILE>
MOL_FILE

$$$$

  -INDIGO-02112615072D

 25 24  0  0  0  0  0  0  0  0999 V2000
   12.1481    0.5397    0.0000 F   0  0  0  0  0  0  0  0  0  0  0  0
   12.1481   -2.5404    0.0000 F   0  0  0  0  0  0  0  0  0  0  0  0
   10.6081    0.5397    0.0000 F   0  0  0  0  0  0  0  0  0  0  0  0
   10.6080   -2.5404    0.0000 F   0  0  0  0  0  0  0  0  0  0  0  0
   13.6880    0.5398    0.0000 F   0  0  0  0  0  0  0  0  0  0  0  0
   13.6879   -2.5403    0.0000 F   0  0  0  0  0  0  0  0  0  0  0  0
    9.0678    0.5397    0.0000 F   0  0  0  0  0  0  0  0  0  0  0  0
    9.0680   -2.5403    0.0000 F   0  0  0  0  0  0  0  0  0  0  0  0
   15.2281   -2.5402    0.0000 F   0  0  0  0  0  0  0  0  0  0  0  0
   15.2281    0.5397    0.0000 F   0  0  0  0  0  0  0  0  0  0  0  0
   17.5381   -2.3340    0.0000 F   0  0  0  0  0  0  0  0  0  0  0  0
   17.5381    0.3333    0.0000 F   0  0  0  0  0  0  0  0  0  0  0  0
    6.7579    0.3334    0.0000 O   0  0  0  0  0  0  0  0  0  0  0  0
    4.4479   -1.0002    0.0000 O   0  0  0  0  0  0  0  0  0  0  0  0
   12.1481   -1.0003    0.0000 C   0  0  0  0  0  0  0  0  0  0  0  0
   10.6080   -1.0003    0.0000 C   0  0  0  0  0  0  0  0  0  0  0  0
   13.6880   -1.0003    0.0000 C   0  0  0  0  0  0  0  0  0  0  0  0
    9.0678   -1.0002    0.0000 C   0  0  0  0  0  0  0  0  0  0  0  0
   15.2280   -1.0003    0.0000 C   0  0  0  0  0  0  0  0  0  0  0  0
    7.5280   -1.0003    0.0000 C   0  0  0  0  0  0  0  0  0  0  0  0
   16.7681   -1.0003    0.0000 C   0  0  0  0  0  0  0  0  0  0  0  0
    5.2179    0.3335    0.0000 C   0  0  0  0  0  0  0  0  0  0  0  0
    4.4478    1.6672    0.0000 C   0  0  0  0  0  0  0  0  0  0  0  0
    2.9078    1.6672    0.0000 C   0  0  0  0  0  0  0  0  0  0  0  0
    5.2178    3.0009    0.0000 C   0  0  0  0  0  0  0  0  0  0  0  0
  1 15  1  0  0  0  0
  2 15  1  0  0  0  0
  3 16  1  0  0  0  0
  4 16  1  0  0  0  0
  5 17  1  0  0  0  0
  6 17  1  0  0  0  0
  7 18  1  0  0  0  0
  8 18  1  0  0  0  0
  9 19  1  0  0  0  0
 10 19  1  0  0  0  0
 11 21  1  0  0  0  0
 12 21  1  0  0  0  0
 13 20  1  0  0  0  0
 13 22  1  0  0  0  0
 14 22  2  0  0  0  0
 15 16  1  0  0  0  0
 15 17  1  0  0  0  0
 16 18  1  0  0  0  0
 17 19  1  0  0  0  0
 18 20  1  0  0  0  0
 19 21  1  0  0  0  0
 22 23  1  0  0  0  0
 23 24  1  0  0  0  0
 23 25  2  0  0  0  0
M  END
>  <INPUT>
DTXSID70177132

>  <FOUND_BY>
DSSTox_Substance_Id

>  <DTXSID>
DTXSID70177132

>  <PREFERRED_NAME>
1H,1H,7H-Perfluoroheptyl methacrylate

>  <CASRN>
2261-99-6

>  <INCHIKEY>
YJKHMSPWWGBKTN-UHFFFAOYSA-N

>  <IUPAC_NAME>
2,2,3,3,4,4,5,5,6,6,7,7-Dodecafluoroheptyl 2-methylprop-2-enoate

>  <SMILES>
CC(=C)C(=O)OCC(F)(F)C(F)(F)C(F)(F)C(F)(F)C(F)(F)C(F)F

>  <INCHI_STRING>
InChI=1S/C11H8F12O2/c1-4(2)5(24)25-3-7(14,15)9(18,19)11(22,23)10(20,21)8(16,17)6(12)13/h6H,1,3H2,2H3


>  <MOLECULAR_FORMULA>
C11H8F12O2

>  <AVERAGE_MASS>
400.164

>  <MONOISOTOPIC_MASS>
400.033267454

>  <MOL_FILE>
MOL_FILE

$$$$

  -INDIGO-02112615072D

 25 24  0  0  0  0  0  0  0  0999 V2000
    6.6686    3.0800    0.0000 I   0  0  0  0  0  0  0  0  0  0  0  0
    0.7701   -0.5637    0.0000 F   0  0  0  0  0  0  0  0  0  0  0  0
   -0.7701    2.1037    0.0000 F   0  0  0  0  0  0  0  0  0  0  0  0
   -0.5636   -1.3337    0.0000 F   0  0  0  0  0  0  0  0  0  0  0  0
   -2.1036    1.3337    0.0000 F   0  0  0  0  0  0  0  0  0  0  0  0
    2.1038    0.2065    0.0000 F   0  0  0  0  0  0  0  0  0  0  0  0
    0.5638    2.8737    0.0000 F   0  0  0  0  0  0  0  0  0  0  0  0
   -3.4374    0.5637    0.0000 F   0  0  0  0  0  0  0  0  0  0  0  0
   -1.8974   -2.1037    0.0000 F   0  0  0  0  0  0  0  0  0  0  0  0
    1.8976    3.6437    0.0000 F   0  0  0  0  0  0  0  0  0  0  0  0
    3.4376    0.9765    0.0000 F   0  0  0  0  0  0  0  0  0  0  0  0
   -4.7711   -0.2065    0.0000 F   0  0  0  0  0  0  0  0  0  0  0  0
   -3.2309   -2.8737    0.0000 F   0  0  0  0  0  0  0  0  0  0  0  0
   -6.6686   -3.0800    0.0000 F   0  0  0  0  0  0  0  0  0  0  0  0
   -6.1048   -0.9765    0.0000 F   0  0  0  0  0  0  0  0  0  0  0  0
   -4.5648   -3.6437    0.0000 F   0  0  0  0  0  0  0  0  0  0  0  0
   -0.0001    0.7700    0.0000 C   0  0  0  0  0  0  0  0  0  0  0  0
   -1.3336    0.0000    0.0000 C   0  0  0  0  0  0  0  0  0  0  0  0
    1.3338    1.5400    0.0000 C   0  0  0  0  0  0  0  0  0  0  0  0
   -2.6674   -0.7700    0.0000 C   0  0  0  0  0  0  0  0  0  0  0  0
    2.6676    2.3100    0.0000 C   0  0  0  0  0  0  0  0  0  0  0  0
   -4.0009   -1.5400    0.0000 C   0  0  0  0  0  0  0  0  0  0  0  0
    4.0011    3.0800    0.0000 C   0  0  0  0  0  0  0  0  0  0  0  0
   -5.3348   -2.3100    0.0000 C   0  0  0  0  0  0  0  0  0  0  0  0
    5.3348    2.3100    0.0000 C   0  0  0  0  0  0  0  0  0  0  0  0
  1 25  1  0  0  0  0
  2 17  1  0  0  0  0
  3 17  1  0  0  0  0
  4 18  1  0  0  0  0
  5 18  1  0  0  0  0
  6 19  1  0  0  0  0
  7 19  1  0  0  0  0
  8 20  1  0  0  0  0
  9 20  1  0  0  0  0
 10 21  1  0  0  0  0
 11 21  1  0  0  0  0
 12 22  1  0  0  0  0
 13 22  1  0  0  0  0
 14 24  1  0  0  0  0
 15 24  1  0  0  0  0
 16 24  1  0  0  0  0
 17 18  1  0  0  0  0
 17 19  1  0  0  0  0
 18 20  1  0  0  0  0
 19 21  1  0  0  0  0
 20 22  1  0  0  0  0
 21 23  1  0  0  0  0
 22 24  1  0  0  0  0
 23 25  1  0  0  0  0
M  END
>  <INPUT>
DTXSID90880156

>  <FOUND_BY>
DSSTox_Substance_Id

>  <DTXSID>
DTXSID90880156

>  <PREFERRED_NAME>
1-Iodo-1H,1H,2H,2H-perfluorononane

>  <CASRN>
2043-52-9

>  <INCHIKEY>
QVTHRDRXTVTNEK-UHFFFAOYSA-N

>  <IUPAC_NAME>
1,1,1,2,2,3,3,4,4,5,5,6,6,7,7-Pentadecafluoro-9-iodononane

>  <SMILES>
FC(F)(F)C(F)(F)C(F)(F)C(F)(F)C(F)(F)C(F)(F)C(F)(F)CCI

>  <INCHI_STRING>
InChI=1S/C9H4F15I/c10-3(11,1-2-25)4(12,13)5(14,15)6(16,17)7(18,19)8(20,21)9(22,23)24/h1-2H2

>  <MOLECULAR_FORMULA>
C9H4F15I

>  <AVERAGE_MASS>
524.012

>  <MONOISOTOPIC_MASS>
523.91182

>  <MOL_FILE>
MOL_FILE

$$$$

  -INDIGO-02112615072D

 14 13  0  0  0  0  0  0  0  0999 V2000
    2.6675    2.7983    0.0000 F   0  0  0  0  0  0  0  0  0  0  0  0
    2.1037    0.6946    0.0000 F   0  0  0  0  0  0  0  0  0  0  0  0
    0.5637    3.3619    0.0000 F   0  0  0  0  0  0  0  0  0  0  0  0
   -2.6675    2.7983    0.0000 F   0  0  0  0  0  0  0  0  0  0  0  0
   -0.5637    3.3619    0.0000 F   0  0  0  0  0  0  0  0  0  0  0  0
   -2.1037    0.6946    0.0000 F   0  0  0  0  0  0  0  0  0  0  0  0
    0.0002   -0.2819    0.0000 O   0  0  0  0  0  0  0  0  0  0  0  0
   -2.6675   -0.2819    0.0000 O   0  0  0  0  0  0  0  0  0  0  0  0
    0.0002    1.2581    0.0000 C   0  0  0  0  0  0  0  0  0  0  0  0
    1.3337    2.0281    0.0000 C   0  0  0  0  0  0  0  0  0  0  0  0
   -1.3337    2.0281    0.0000 C   0  0  0  0  0  0  0  0  0  0  0  0
   -1.3337   -1.0519    0.0000 C   0  0  0  0  0  0  0  0  0  0  0  0
   -1.3337   -2.5919    0.0000 C   0  0  0  0  0  0  0  0  0  0  0  0
   -2.6675   -3.3619    0.0000 C   0  0  0  0  0  0  0  0  0  0  0  0
  1 10  1  0  0  0  0
  2 10  1  0  0  0  0
  3 10  1  0  0  0  0
  4 11  1  0  0  0  0
  5 11  1  0  0  0  0
  6 11  1  0  0  0  0
  7  9  1  0  0  0  0
  7 12  1  0  0  0  0
  8 12  2  0  0  0  0
  9 10  1  0  0  0  0
  9 11  1  0  0  0  0
 12 13  1  0  0  0  0
 13 14  2  0  0  0  0
M  END
>  <INPUT>
DTXSID10880178

>  <FOUND_BY>
DSSTox_Substance_Id

>  <DTXSID>
DTXSID10880178

>  <PREFERRED_NAME>
Hexafluoroisopropyl acrylate

>  <CASRN>
2160-89-6

>  <INCHIKEY>
MNSWITGNWZSAMC-UHFFFAOYSA-N

>  <IUPAC_NAME>
1,1,1,3,3,3-Hexafluoropropan-2-yl prop-2-enoate

>  <SMILES>
FC(F)(F)C(OC(=O)C=C)C(F)(F)F

>  <INCHI_STRING>
InChI=1S/C6H4F6O2/c1-2-3(13)14-4(5(7,8)9)6(10,11)12/h2,4H,1H2

>  <MOLECULAR_FORMULA>
C6H4F6O2

>  <AVERAGE_MASS>
222.086

>  <MONOISOTOPIC_MASS>
222.011548347

>  <MOL_FILE>
MOL_FILE

$$$$

  -INDIGO-02112615072D

 13 12  0  0  0  0  0  0  0  0999 V2000
    8.4149    1.1657    0.0000 F   0  0  0  0  0  0  0  0  0  0  0  0
    7.0812    1.9357    0.0000 F   0  0  0  0  0  0  0  0  0  0  0  0
    7.8512   -0.9378    0.0000 F   0  0  0  0  0  0  0  0  0  0  0  0
    3.0800   -1.9143    0.0000 F   0  0  0  0  0  0  0  0  0  0  0  0
    3.6437    0.1895    0.0000 F   0  0  0  0  0  0  0  0  0  0  0  0
    4.4137   -2.6843    0.0000 F   0  0  0  0  0  0  0  0  0  0  0  0
    6.5175   -1.7078    0.0000 O   0  0  0  0  0  0  0  0  0  0  0  0
    3.6437    1.7295    0.0000 O   0  0  0  0  0  0  0  0  0  0  0  0
    5.7475    2.2932    0.0000 O   0  0  0  0  0  0  0  0  0  0  0  0
    5.7475   -0.3743    0.0000 C   0  0  0  0  0  0  0  0  0  0  0  0
    7.0812    0.3957    0.0000 C   0  0  0  0  0  0  0  0  0  0  0  0
    4.4137   -1.1443    0.0000 C   0  0  0  0  0  0  0  0  0  0  0  0
    4.9775    0.9595    0.0000 C   0  0  0  0  0  0  0  0  0  0  0  0
  1 11  1  0  0  0  0
  2 11  1  0  0  0  0
  3 11  1  0  0  0  0
  4 12  1  0  0  0  0
  5 12  1  0  0  0  0
  6 12  1  0  0  0  0
  7 10  1  0  0  0  0
  8 13  1  0  0  0  0
  9 13  2  0  0  0  0
 10 11  1  0  0  0  0
 10 12  1  0  0  0  0
 10 13  1  0  0  0  0
M  END
>  <INPUT>
DTXSID00369341

>  <FOUND_BY>
DSSTox_Substance_Id

>  <DTXSID>
DTXSID00369341

>  <PREFERRED_NAME>
2,2-bis(Trifluoromethyl)-2-hydroxyacetic acid

>  <CASRN>
662-22-6

>  <INCHIKEY>
CMQUGOHGJUTDGZ-UHFFFAOYSA-N

>  <IUPAC_NAME>
3,3,3-Trifluoro-2-hydroxy-2-(trifluoromethyl)propanoic acid

>  <SMILES>
OC(=O)C(O)(C(F)(F)F)C(F)(F)F

>  <INCHI_STRING>
InChI=1S/C4H2F6O3/c5-3(6,7)2(13,1(11)12)4(8,9)10/h13H,(H,11,12)

>  <MOLECULAR_FORMULA>
C4H2F6O3

>  <AVERAGE_MASS>
212.047

>  <MONOISOTOPIC_MASS>
211.990812902

>  <MOL_FILE>
MOL_FILE

$$$$

  -INDIGO-02112615072D

 25 24  0  0  0  0  0  0  0  0999 V2000
    7.6449    0.6069    0.0000 F   0  0  0  0  0  0  0  0  0  0  0  0
    9.1849   -2.0606    0.0000 F   0  0  0  0  0  0  0  0  0  0  0  0
    8.9785    1.3769    0.0000 F   0  0  0  0  0  0  0  0  0  0  0  0
   10.5187   -1.2906    0.0000 F   0  0  0  0  0  0  0  0  0  0  0  0
    6.3112   -0.1633    0.0000 F   0  0  0  0  0  0  0  0  0  0  0  0
    7.8512   -2.8306    0.0000 F   0  0  0  0  0  0  0  0  0  0  0  0
   11.8524   -0.5206    0.0000 F   0  0  0  0  0  0  0  0  0  0  0  0
   10.3124    2.1469    0.0000 F   0  0  0  0  0  0  0  0  0  0  0  0
    4.9775   -0.9333    0.0000 F   0  0  0  0  0  0  0  0  0  0  0  0
    6.5175   -3.6006    0.0000 F   0  0  0  0  0  0  0  0  0  0  0  0
   13.1861    0.2496    0.0000 F   0  0  0  0  0  0  0  0  0  0  0  0
   11.6461    2.9169    0.0000 F   0  0  0  0  0  0  0  0  0  0  0  0
    3.0800   -3.8069    0.0000 F   0  0  0  0  0  0  0  0  0  0  0  0
    3.6437   -1.7033    0.0000 F   0  0  0  0  0  0  0  0  0  0  0  0
    5.1837   -4.3706    0.0000 F   0  0  0  0  0  0  0  0  0  0  0  0
   15.0834    1.5831    0.0000 N   0  0  0  0  0  0  0  0  0  0  0  0
   13.7497    3.8931    0.0000 N   0  0  0  0  0  0  0  0  0  0  0  0
    8.4149   -0.7269    0.0000 C   0  0  0  0  0  0  0  0  0  0  0  0
    9.7485    0.0431    0.0000 C   0  0  0  0  0  0  0  0  0  0  0  0
    7.0812   -1.4969    0.0000 C   0  0  0  0  0  0  0  0  0  0  0  0
   11.0824    0.8131    0.0000 C   0  0  0  0  0  0  0  0  0  0  0  0
    5.7475   -2.2669    0.0000 C   0  0  0  0  0  0  0  0  0  0  0  0
   12.4161    1.5831    0.0000 C   0  0  0  0  0  0  0  0  0  0  0  0
    4.4137   -3.0369    0.0000 C   0  0  0  0  0  0  0  0  0  0  0  0
   13.7497    2.3531    0.0000 C   0  0  0  0  0  0  0  0  0  0  0  0
  1 18  1  0  0  0  0
  2 18  1  0  0  0  0
  3 19  1  0  0  0  0
  4 19  1  0  0  0  0
  5 20  1  0  0  0  0
  6 20  1  0  0  0  0
  7 21  1  0  0  0  0
  8 21  1  0  0  0  0
  9 22  1  0  0  0  0
 10 22  1  0  0  0  0
 11 23  1  0  0  0  0
 12 23  1  0  0  0  0
 13 24  1  0  0  0  0
 14 24  1  0  0  0  0
 15 24  1  0  0  0  0
 16 25  1  0  0  0  0
 17 25  2  0  0  0  0
 18 19  1  0  0  0  0
 18 20  1  0  0  0  0
 19 21  1  0  0  0  0
 20 22  1  0  0  0  0
 21 23  1  0  0  0  0
 22 24  1  0  0  0  0
 23 25  1  0  0  0  0
M  END
>  <INPUT>
DTXSID70381151

>  <FOUND_BY>
DSSTox_Substance_Id

>  <DTXSID>
DTXSID70381151

>  <PREFERRED_NAME>
Perfluorooctanamidine

>  <CASRN>
307-31-3

>  <INCHIKEY>
VHJKOLAKAFYZMC-UHFFFAOYSA-N

>  <IUPAC_NAME>
2,2,3,3,4,4,5,5,6,6,7,7,8,8,8-Pentadecafluorooctanimidamide

>  <SMILES>
NC(=N)C(F)(F)C(F)(F)C(F)(F)C(F)(F)C(F)(F)C(F)(F)C(F)(F)F

>  <INCHI_STRING>
InChI=1S/C8H3F15N2/c9-2(10,1(24)25)3(11,12)4(13,14)5(15,16)6(17,18)7(19,20)8(21,22)23/h(H3,24,25)

>  <MOLECULAR_FORMULA>
C8H3F15N2

>  <AVERAGE_MASS>
412.102

>  <MONOISOTOPIC_MASS>
412.00567055

>  <MOL_FILE>
MOL_FILE

$$$$

  -INDIGO-02112615072D

 17 16  0  0  0  0  0  0  0  0999 V2000
    4.9775   -1.7186    0.0000 F   0  0  0  0  0  0  0  0  0  0  0  0
    6.5175    0.9486    0.0000 F   0  0  0  0  0  0  0  0  0  0  0  0
   10.3124    0.9486    0.0000 F   0  0  0  0  0  0  0  0  0  0  0  0
   11.8524   -1.7186    0.0000 F   0  0  0  0  0  0  0  0  0  0  0  0
    3.0800    1.1551    0.0000 F   0  0  0  0  0  0  0  0  0  0  0  0
    3.6437   -0.9486    0.0000 F   0  0  0  0  0  0  0  0  0  0  0  0
    5.1837    1.7186    0.0000 F   0  0  0  0  0  0  0  0  0  0  0  0
   13.7497    1.1551    0.0000 F   0  0  0  0  0  0  0  0  0  0  0  0
   11.6461    1.7186    0.0000 F   0  0  0  0  0  0  0  0  0  0  0  0
   13.1861   -0.9486    0.0000 F   0  0  0  0  0  0  0  0  0  0  0  0
    8.4149   -0.3851    0.0000 N   0  0  0  0  0  0  0  0  0  0  0  0
    9.7485   -1.1551    0.0000 C   0  0  0  0  0  0  0  0  0  0  0  0
    7.0812   -1.1551    0.0000 C   0  0  0  0  0  0  0  0  0  0  0  0
   11.0824   -0.3851    0.0000 C   0  0  0  0  0  0  0  0  0  0  0  0
    5.7475   -0.3851    0.0000 C   0  0  0  0  0  0  0  0  0  0  0  0
    4.4137    0.3851    0.0000 C   0  0  0  0  0  0  0  0  0  0  0  0
   12.4161    0.3851    0.0000 C   0  0  0  0  0  0  0  0  0  0  0  0
  1 15  1  0  0  0  0
  2 15  1  0  0  0  0
  3 14  1  0  0  0  0
  4 14  1  0  0  0  0
  5 16  1  0  0  0  0
  6 16  1  0  0  0  0
  7 16  1  0  0  0  0
  8 17  1  0  0  0  0
  9 17  1  0  0  0  0
 10 17  1  0  0  0  0
 11 12  1  0  0  0  0
 11 13  1  0  0  0  0
 12 14  1  0  0  0  0
 13 15  1  0  0  0  0
 14 17  1  0  0  0  0
 15 16  1  0  0  0  0
M  END
>  <INPUT>
DTXSID50381992

>  <FOUND_BY>
DSSTox_Substance_Id

>  <DTXSID>
DTXSID50381992

>  <PREFERRED_NAME>
Bis(1H,1H-perfluoropropyl)amine

>  <CASRN>
883498-76-8

>  <INCHIKEY>
GFCAENPEZRYHBS-UHFFFAOYSA-N

>  <IUPAC_NAME>
2,2,3,3,3-Pentafluoro-N-(2,2,3,3,3-pentafluoropropyl)propan-1-amine

>  <SMILES>
FC(F)(F)C(F)(F)CNCC(F)(F)C(F)(F)F

>  <INCHI_STRING>
InChI=1S/C6H5F10N/c7-3(8,5(11,12)13)1-17-2-4(9,10)6(14,15)16/h17H,1-2H2

>  <MOLECULAR_FORMULA>
C6H5F10N

>  <AVERAGE_MASS>
281.097

>  <MONOISOTOPIC_MASS>
281.026230795

>  <MOL_FILE>
MOL_FILE

$$$$

  -INDIGO-02112615072D

 19 19  0  0  0  0  0  0  0  0999 V2000
    5.1837    1.7933    0.0000 F   0  0  0  0  0  0  0  0  0  0  0  0
    3.0800   -0.3102    0.0000 F   0  0  0  0  0  0  0  0  0  0  0  0
    3.8500    1.0233    0.0000 F   0  0  0  0  0  0  0  0  0  0  0  0
    8.8275   -0.3102    0.0000 F   0  0  0  0  0  0  0  0  0  0  0  0
    8.0575    1.0233    0.0000 F   0  0  0  0  0  0  0  0  0  0  0  0
    3.8500   -3.1840    0.0000 F   0  0  0  0  0  0  0  0  0  0  0  0
    3.0800   -1.8504    0.0000 F   0  0  0  0  0  0  0  0  0  0  0  0
    8.0575   -3.1840    0.0000 F   0  0  0  0  0  0  0  0  0  0  0  0
    8.8275   -1.8504    0.0000 F   0  0  0  0  0  0  0  0  0  0  0  0
    5.1837   -3.9540    0.0000 F   0  0  0  0  0  0  0  0  0  0  0  0
    6.7237   -3.9540    0.0000 F   0  0  0  0  0  0  0  0  0  0  0  0
    5.9537    3.1272    0.0000 O   0  0  0  0  0  0  0  0  0  0  0  0
    5.9537    0.4598    0.0000 C   0  0  0  0  0  0  0  0  0  0  0  0
    4.6202   -0.3102    0.0000 C   0  0  0  0  0  0  0  0  0  0  0  0
    7.2875   -0.3102    0.0000 C   0  0  0  0  0  0  0  0  0  0  0  0
    4.6202   -1.8504    0.0000 C   0  0  0  0  0  0  0  0  0  0  0  0
    7.2875   -1.8504    0.0000 C   0  0  0  0  0  0  0  0  0  0  0  0
    5.9537   -2.6204    0.0000 C   0  0  0  0  0  0  0  0  0  0  0  0
    6.7237    1.7933    0.0000 C   0  0  0  0  0  0  0  0  0  0  0  0
  1 13  1  0  0  0  0
  2 14  1  0  0  0  0
  3 14  1  0  0  0  0
  4 15  1  0  0  0  0
  5 15  1  0  0  0  0
  6 16  1  0  0  0  0
  7 16  1  0  0  0  0
  8 17  1  0  0  0  0
  9 17  1  0  0  0  0
 10 18  1  0  0  0  0
 11 18  1  0  0  0  0
 12 19  1  0  0  0  0
 13 14  1  0  0  0  0
 13 15  1  0  0  0  0
 13 19  1  0  0  0  0
 14 16  1  0  0  0  0
 15 17  1  0  0  0  0
 16 18  1  0  0  0  0
 17 18  1  0  0  0  0
M  END
>  <INPUT>
DTXSID30182964

>  <FOUND_BY>
DSSTox_Substance_Id

>  <DTXSID>
DTXSID30182964

>  <PREFERRED_NAME>
(Perfluorocyclohexyl)methanol

>  <CASRN>
28788-68-3

>  <INCHIKEY>
ZFHKTQUHJNUDNH-UHFFFAOYSA-N

>  <IUPAC_NAME>
(Undecafluorocyclohexyl)methanol

>  <SMILES>
OCC1(F)C(F)(F)C(F)(F)C(F)(F)C(F)(F)C1(F)F

>  <INCHI_STRING>
InChI=1S/C7H3F11O/c8-2(1-19)3(9,10)5(13,14)7(17,18)6(15,16)4(2,11)12/h19H,1H2

>  <MOLECULAR_FORMULA>
C7H3F11O

>  <AVERAGE_MASS>
312.082

>  <MONOISOTOPIC_MASS>
312.00082451

>  <MOL_FILE>
MOL_FILE

$$$$

  -INDIGO-02112615072D

 20 19  0  0  0  0  0  0  0  0999 V2000
    6.4770   -1.8219    0.0000 Cl  0  0  0  0  0  0  0  0  0  0  0  0
    6.7732    1.7985    0.0000 F   0  0  0  0  0  0  0  0  0  0  0  0
    7.8107   -1.0519    0.0000 F   0  0  0  0  0  0  0  0  0  0  0  0
    9.1444   -0.2819    0.0000 F   0  0  0  0  0  0  0  0  0  0  0  0
    7.6044    2.3856    0.0000 F   0  0  0  0  0  0  0  0  0  0  0  0
    4.1670   -3.1556    0.0000 F   0  0  0  0  0  0  0  0  0  0  0  0
    3.6032   -1.0519    0.0000 F   0  0  0  0  0  0  0  0  0  0  0  0
    5.7071   -3.1556    0.0000 F   0  0  0  0  0  0  0  0  0  0  0  0
    3.3475    1.4917    0.0000 F   0  0  0  0  0  0  0  0  0  0  0  0
    3.0800   -0.0250    0.0000 F   0  0  0  0  0  0  0  0  0  0  0  0
    5.5171    1.6815    0.0000 F   0  0  0  0  0  0  0  0  0  0  0  0
   11.0417    2.5919    0.0000 F   0  0  0  0  0  0  0  0  0  0  0  0
   10.4782    0.4881    0.0000 F   0  0  0  0  0  0  0  0  0  0  0  0
    8.9380    3.1556    0.0000 F   0  0  0  0  0  0  0  0  0  0  0  0
    5.7070   -0.4881    0.0000 C   0  0  0  0  0  0  0  0  0  0  0  0
    7.0407    0.2819    0.0000 C   0  0  0  0  0  0  0  0  0  0  0  0
    8.3744    1.0519    0.0000 C   0  0  0  0  0  0  0  0  0  0  0  0
    4.9370   -1.8219    0.0000 C   0  0  0  0  0  0  0  0  0  0  0  0
    4.5272    0.5018    0.0000 C   0  0  0  0  0  0  0  0  0  0  0  0
    9.7080    1.8219    0.0000 C   0  0  0  0  0  0  0  0  0  0  0  0
  1 15  1  0  0  0  0
  2 16  1  0  0  0  0
  3 16  1  0  0  0  0
  4 17  1  0  0  0  0
  5 17  1  0  0  0  0
  6 18  1  0  0  0  0
  7 18  1  0  0  0  0
  8 18  1  0  0  0  0
  9 19  1  0  0  0  0
 10 19  1  0  0  0  0
 11 19  1  0  0  0  0
 12 20  1  0  0  0  0
 13 20  1  0  0  0  0
 14 20  1  0  0  0  0
 15 16  1  0  0  0  0
 15 18  1  0  0  0  0
 15 19  1  0  0  0  0
 16 17  1  0  0  0  0
 17 20  1  0  0  0  0
M  END
>  <INPUT>
DTXSID80371528

>  <FOUND_BY>
DSSTox_Substance_Id

>  <DTXSID>
DTXSID80371528

>  <PREFERRED_NAME>
2-Chloro(perfluoro-2-methylpentane)

>  <CASRN>
67437-97-2

>  <INCHIKEY>
NTLNMNNHUJOUOM-UHFFFAOYSA-N

>  <IUPAC_NAME>
2-Chloro-1,1,1,3,3,4,4,5,5,5-decafluoro-2-(trifluoromethyl)pentane

>  <SMILES>
FC(F)(F)C(F)(F)C(F)(F)C(Cl)(C(F)(F)F)C(F)(F)F

>  <INCHI_STRING>
InChI=1S/C6ClF13/c7-1(4(12,13)14,5(15,16)17)2(8,9)3(10,11)6(18,19)20

>  <MOLECULAR_FORMULA>
C6ClF13

>  <AVERAGE_MASS>
354.5

>  <MONOISOTOPIC_MASS>
353.9480938

>  <MOL_FILE>
MOL_FILE

$$$$

  -INDIGO-02112615072D

 11 11  0  0  0  0  0  0  0  0999 V2000
    1.0520   -3.4374    0.0000 F   0  0  0  0  0  0  0  0  0  0  0  0
    1.8218   -2.1036    0.0000 C   0  0  0  0  0  0  0  0  0  0  0  0
    3.3618   -2.1036    0.0000 F   0  0  0  0  0  0  0  0  0  0  0  0
    1.0520   -0.7699    0.0000 C   0  0  0  0  0  0  0  0  0  0  0  0
   -0.2820   -1.5399    0.0000 F   0  0  0  0  0  0  0  0  0  0  0  0
    2.3855   -0.0001    0.0000 F   0  0  0  0  0  0  0  0  0  0  0  0
    0.2820    0.5636    0.0000 O   0  0  0  0  0  0  0  0  0  0  0  0
   -1.2580    0.5636    0.0000 C   0  0  0  0  0  0  0  0  0  0  0  0
   -2.0280    1.8974    0.0000 C   0  0  0  0  0  0  0  0  0  0  0  0
   -2.0280    3.4374    0.0000 C   0  0  0  0  0  0  0  0  0  0  0  0
   -3.3618    2.6674    0.0000 O   0  0  0  0  0  0  0  0  0  0  0  0
  1  2  1  0  0  0  0
  2  3  1  0  0  0  0
  2  4  1  0  0  0  0
  4  5  1  0  0  0  0
  4  6  1  0  0  0  0
  4  7  1  0  0  0  0
  7  8  1  0  0  0  0
  8  9  1  0  0  0  0
  9 10  1  0  0  0  0
  9 11  1  0  0  0  0
 10 11  1  0  0  0  0
M  END
>  <INPUT>
DTXSID50881008

>  <FOUND_BY>
DSSTox_Substance_Id

>  <DTXSID>
DTXSID50881008

>  <PREFERRED_NAME>
(2H-Perfluoroethoxy)methyloxirane

>  <CASRN>
85567-21-1

>  <INCHIKEY>
HFNPKDDYCOMYLN-UHFFFAOYNA-N

>  <IUPAC_NAME>
2-[(1,1,2,2-Tetrafluoroethoxy)methyl]oxirane

>  <SMILES>
FC(F)C(F)(F)OCC1CO1

>  <INCHI_STRING>
InChI=1S/C5H6F4O2/c6-4(7)5(8,9)11-2-3-1-10-3/h3-4H,1-2H2

>  <MOLECULAR_FORMULA>
C5H6F4O2

>  <AVERAGE_MASS>
174.095

>  <MONOISOTOPIC_MASS>
174.030392085

>  <MOL_FILE>
MOL_FILE

$$$$

  -INDIGO-02112615072D

 18 18  0  0  0  0  0  0  0  0999 V2000
    5.3347    3.0800    0.0000 F   0  0  0  0  0  0  0  0  0  0  0  0
    4.0010    2.3100    0.0000 C   0  0  0  0  0  0  0  0  0  0  0  0
    3.2310    3.6437    0.0000 F   0  0  0  0  0  0  0  0  0  0  0  0
    4.7710    0.9763    0.0000 F   0  0  0  0  0  0  0  0  0  0  0  0
    2.6673    1.5400    0.0000 N   0  0  0  0  0  0  0  0  0  0  0  0
    2.6673    0.0000    0.0000 C   0  0  0  0  0  0  0  0  0  0  0  0
    4.1839    0.2675    0.0000 F   0  0  0  0  0  0  0  0  0  0  0  0
    3.1941   -1.4470    0.0000 F   0  0  0  0  0  0  0  0  0  0  0  0
    1.3337   -0.7700    0.0000 C   0  0  0  0  0  0  0  0  0  0  0  0
    0.0000    0.0000    0.0000 O   0  0  0  0  0  0  0  0  0  0  0  0
    0.0000    1.5400    0.0000 C   0  0  0  0  0  0  0  0  0  0  0  0
   -1.5167    1.2725    0.0000 F   0  0  0  0  0  0  0  0  0  0  0  0
   -0.5268    2.9870    0.0000 F   0  0  0  0  0  0  0  0  0  0  0  0
    1.3337    2.3100    0.0000 C   0  0  0  0  0  0  0  0  0  0  0  0
    0.6108    3.6697    0.0000 F   0  0  0  0  0  0  0  0  0  0  0  0
    2.0567    3.6697    0.0000 F   0  0  0  0  0  0  0  0  0  0  0  0
    2.0567   -2.1297    0.0000 F   0  0  0  0  0  0  0  0  0  0  0  0
    0.6108   -2.1297    0.0000 F   0  0  0  0  0  0  0  0  0  0  0  0
  1  2  1  0  0  0  0
  2  3  1  0  0  0  0
  2  4  1  0  0  0  0
  2  5  1  0  0  0  0
  5  6  1  0  0  0  0
  6  7  1  0  0  0  0
  6  8  1  0  0  0  0
  6  9  1  0  0  0  0
  9 10  1  0  0  0  0
 10 11  1  0  0  0  0
 11 12  1  0  0  0  0
 11 13  1  0  0  0  0
 11 14  1  0  0  0  0
  5 14  1  0  0  0  0
 14 15  1  0  0  0  0
 14 16  1  0  0  0  0
  9 17  1  0  0  0  0
  9 18  1  0  0  0  0
M  END
>  <INPUT>
DTXSID7059933

>  <FOUND_BY>
DSSTox_Substance_Id

>  <DTXSID>
DTXSID7059933

>  <PREFERRED_NAME>
Perfluoro(N-methylmorpholine)

>  <CASRN>
382-28-5

>  <INCHIKEY>
PQMAKJUXOOVROI-UHFFFAOYSA-N

>  <IUPAC_NAME>
2,2,3,3,5,5,6,6-Octafluoro-4-(trifluoromethyl)morpholine

>  <SMILES>
FC(F)(F)N1C(F)(F)C(F)(F)OC(F)(F)C1(F)F

>  <INCHI_STRING>
InChI=1S/C5F11NO/c6-1(7)3(10,11)18-4(12,13)2(8,9)17(1)5(14,15)16


>  <MOLECULAR_FORMULA>
C5F11NO

>  <AVERAGE_MASS>
299.043

>  <MONOISOTOPIC_MASS>
298.980423417

>  <MOL_FILE>
MOL_FILE

$$$$

  -INDIGO-02112615072D

 14 13  0  0  0  0  0  0  0  0999 V2000
    5.8044    0.9486    0.0000 F   0  0  0  0  0  0  0  0  0  0  0  0
    7.3444   -1.7186    0.0000 F   0  0  0  0  0  0  0  0  0  0  0  0
    7.1381    1.7186    0.0000 F   0  0  0  0  0  0  0  0  0  0  0  0
    8.6781   -0.9486    0.0000 F   0  0  0  0  0  0  0  0  0  0  0  0
    4.4707    0.1786    0.0000 F   0  0  0  0  0  0  0  0  0  0  0  0
    6.0107   -2.4886    0.0000 F   0  0  0  0  0  0  0  0  0  0  0  0
   10.5756    1.9251    0.0000 F   0  0  0  0  0  0  0  0  0  0  0  0
   10.0117   -0.1786    0.0000 F   0  0  0  0  0  0  0  0  0  0  0  0
    8.4717    2.4886    0.0000 F   0  0  0  0  0  0  0  0  0  0  0  0
    3.9069   -1.9251    0.0000 O   0  0  0  0  0  0  0  0  0  0  0  0
    6.5744   -0.3851    0.0000 C   0  0  0  0  0  0  0  0  0  0  0  0
    7.9081    0.3851    0.0000 C   0  0  0  0  0  0  0  0  0  0  0  0
    5.2407   -1.1551    0.0000 C   0  0  0  0  0  0  0  0  0  0  0  0
    9.2417    1.1551    0.0000 C   0  0  0  0  0  0  0  0  0  0  0  0
  1 11  1  0  0  0  0
  2 11  1  0  0  0  0
  3 12  1  0  0  0  0
  4 12  1  0  0  0  0
  5 13  1  0  0  0  0
  6 13  1  0  0  0  0
  7 14  1  0  0  0  0
  8 14  1  0  0  0  0
  9 14  1  0  0  0  0
 10 13  1  0  0  0  0
 11 12  1  0  0  0  0
 11 13  1  0  0  0  0
 12 14  1  0  0  0  0
M  END
>  <INPUT>
DTXSID80562292

>  <FOUND_BY>
DSSTox_Substance_Id

>  <DTXSID>
DTXSID80562292

>  <PREFERRED_NAME>
Perfluorobutanol

>  <CASRN>
3056-01-7

>  <INCHIKEY>
QXJCOPITNGTALI-UHFFFAOYSA-N

>  <IUPAC_NAME>
Nonafluorobutan-1-ol

>  <SMILES>
OC(F)(F)C(F)(F)C(F)(F)C(F)(F)F

>  <INCHI_STRING>
InChI=1S/C4HF9O/c5-1(6,3(9,10)11)2(7,8)4(12,13)14/h14H

>  <MOLECULAR_FORMULA>
C4HF9O

>  <AVERAGE_MASS>
236.037

>  <MONOISOTOPIC_MASS>
235.988368119

>  <MOL_FILE>
MOL_FILE

$$$$

  -INDIGO-02112615072D

 25 25  0  0  0  0  0  0  0  0999 V2000
    6.2121    7.8022    0.0000 F   0  0  0  0  0  0  0  0  0  0  0  0
    5.1817    6.6578    0.0000 C   0  0  0  0  0  0  0  0  0  0  0  0
    4.0372    7.6882    0.0000 F   0  0  0  0  0  0  0  0  0  0  0  0
    6.3261    5.6273    0.0000 F   0  0  0  0  0  0  0  0  0  0  0  0
    4.1512    5.5133    0.0000 C   0  0  0  0  0  0  0  0  0  0  0  0
    3.0068    6.5438    0.0000 F   0  0  0  0  0  0  0  0  0  0  0  0
    5.2956    4.4829    0.0000 F   0  0  0  0  0  0  0  0  0  0  0  0
    3.1207    4.3689    0.0000 C   0  0  0  0  0  0  0  0  0  0  0  0
    1.9763    5.3993    0.0000 F   0  0  0  0  0  0  0  0  0  0  0  0
    4.2652    3.3384    0.0000 F   0  0  0  0  0  0  0  0  0  0  0  0
    2.0903    3.2244    0.0000 C   0  0  0  0  0  0  0  0  0  0  0  0
    0.9458    4.2549    0.0000 F   0  0  0  0  0  0  0  0  0  0  0  0
    3.2347    2.1940    0.0000 F   0  0  0  0  0  0  0  0  0  0  0  0
    1.0598    2.0800    0.0000 C   0  0  0  0  0  0  0  0  0  0  0  0
    0.0294    3.2244    0.0000 F   0  0  0  0  0  0  0  0  0  0  0  0
    2.3057    1.1748    0.0000 O   0  0  0  0  0  0  0  0  0  0  0  0
    1.8298   -0.2898    0.0000 C   0  0  0  0  0  0  0  0  0  0  0  0
    3.3362   -0.6100    0.0000 F   0  0  0  0  0  0  0  0  0  0  0  0
    1.6688   -1.8214    0.0000 F   0  0  0  0  0  0  0  0  0  0  0  0
    0.2898   -0.2898    0.0000 C   0  0  0  0  0  0  0  0  0  0  0  0
    0.4508   -1.8214    0.0000 F   0  0  0  0  0  0  0  0  0  0  0  0
   -1.2165   -0.6100    0.0000 F   0  0  0  0  0  0  0  0  0  0  0  0
   -0.1861    1.1748    0.0000 C   0  0  0  0  0  0  0  0  0  0  0  0
   -1.6957    0.8704    0.0000 F   0  0  0  0  0  0  0  0  0  0  0  0
   -1.2285    2.3084    0.0000 F   0  0  0  0  0  0  0  0  0  0  0  0
  1  2  1  0  0  0  0
  2  3  1  0  0  0  0
  2  4  1  0  0  0  0
  2  5  1  0  0  0  0
  5  6  1  0  0  0  0
  5  7  1  0  0  0  0
  5  8  1  0  0  0  0
  8  9  1  0  0  0  0
  8 10  1  0  0  0  0
  8 11  1  0  0  0  0
 11 12  1  0  0  0  0
 11 13  1  0  0  0  0
 11 14  1  0  0  0  0
 14 15  1  0  0  0  0
 14 16  1  0  0  0  0
 16 17  1  0  0  0  0
 17 18  1  0  0  0  0
 17 19  1  0  0  0  0
 17 20  1  0  0  0  0
 20 21  1  0  0  0  0
 20 22  1  0  0  0  0
 20 23  1  0  0  0  0
 14 23  1  0  0  0  0
 23 24  1  0  0  0  0
 23 25  1  0  0  0  0
M  END
>  <INPUT>
DTXSID60871632

>  <FOUND_BY>
DSSTox_Substance_Id

>  <DTXSID>
DTXSID60871632

>  <PREFERRED_NAME>
Perfluoro-2-butyltetrahydrofuran

>  <CASRN>
335-36-4

>  <INCHIKEY>
FYJQJMIEZVMYSD-UHFFFAOYNA-N

>  <IUPAC_NAME>
2,2,3,3,4,4,5-Heptafluoro-5-(nonafluorobutyl)oxolane

>  <SMILES>
FC(F)(F)C(F)(F)C(F)(F)C(F)(F)C1(F)OC(F)(F)C(F)(F)C1(F)F

>  <INCHI_STRING>
InChI=1/C8F16O/c9-1(10,4(15,16)7(20,21)22)2(11,12)6(19)3(13,14)5(17,18)8(23,24)25-6


>  <MOLECULAR_FORMULA>
C8F16O

>  <AVERAGE_MASS>
416.061

>  <MONOISOTOPIC_MASS>
415.969365228

>  <MOL_FILE>
MOL_FILE

$$$$

  -INDIGO-02112615072D

 17 16  0  0  0  0  0  0  0  0999 V2000
    1.5400   -7.7000    0.0000 F   0  0  0  0  0  0  0  0  0  0  0  0
    1.5400   -6.1600    0.0000 C   0  0  0  0  0  0  0  0  0  0  0  0
    3.0800   -6.1600    0.0000 F   0  0  0  0  0  0  0  0  0  0  0  0
    0.0000   -6.1600    0.0000 F   0  0  0  0  0  0  0  0  0  0  0  0
    1.5400   -4.6200    0.0000 C   0  0  0  0  0  0  0  0  0  0  0  0
    3.0800   -4.6200    0.0000 F   0  0  0  0  0  0  0  0  0  0  0  0
    0.0000   -4.6200    0.0000 F   0  0  0  0  0  0  0  0  0  0  0  0
    1.5400   -3.0800    0.0000 C   0  0  0  0  0  0  0  0  0  0  0  0
    3.0800   -3.0800    0.0000 F   0  0  0  0  0  0  0  0  0  0  0  0
    0.0000   -3.0800    0.0000 F   0  0  0  0  0  0  0  0  0  0  0  0
    1.5400   -1.5400    0.0000 C   0  0  0  0  0  0  0  0  0  0  0  0
    3.0800   -1.5400    0.0000 F   0  0  0  0  0  0  0  0  0  0  0  0
    0.0000   -1.5400    0.0000 F   0  0  0  0  0  0  0  0  0  0  0  0
    1.5400    0.0000    0.0000 C   0  0  0  0  0  0  0  0  0  0  0  0
    1.5400    1.5400    0.0000 F   0  0  0  0  0  0  0  0  0  0  0  0
    3.0800    0.0000    0.0000 F   0  0  0  0  0  0  0  0  0  0  0  0
    0.0000    0.0000    0.0000 I   0  0  0  0  0  0  0  0  0  0  0  0
  1  2  1  0  0  0  0
  2  3  1  0  0  0  0
  2  4  1  0  0  0  0
  2  5  1  0  0  0  0
  5  6  1  0  0  0  0
  5  7  1  0  0  0  0
  5  8  1  0  0  0  0
  8  9  1  0  0  0  0
  8 10  1  0  0  0  0
  8 11  1  0  0  0  0
 11 12  1  0  0  0  0
 11 13  1  0  0  0  0
 11 14  1  0  0  0  0
 14 15  1  0  0  0  0
 14 16  1  0  0  0  0
 14 17  1  0  0  0  0
M  END
>  <INPUT>
DTXSID5060936

>  <FOUND_BY>
DSSTox_Substance_Id

>  <DTXSID>
DTXSID5060936

>  <PREFERRED_NAME>
1-Iodoperfluoropentane

>  <CASRN>
638-79-9

>  <INCHIKEY>
KCEJJSGJNCSQFI-UHFFFAOYSA-N

>  <IUPAC_NAME>
1,1,1,2,2,3,3,4,4,5,5-Undecafluoro-5-iodopentane

>  <SMILES>
FC(F)(F)C(F)(F)C(F)(F)C(F)(F)C(F)(F)I

>  <INCHI_STRING>
InChI=1S/C5F11I/c6-1(7,2(8,9)4(12,13)14)3(10,11)5(15,16)17

>  <MOLECULAR_FORMULA>
C5F11I

>  <AVERAGE_MASS>
395.942

>  <MONOISOTOPIC_MASS>
395.8869

>  <MOL_FILE>
MOL_FILE

$$$$

  -INDIGO-02112615072D

 24 24  0  0  0  0  0  0  0  0999 V2000
    3.5171   -2.6819    0.0000 C   0  0  0  0  0  0  0  0  0  0  0  0
    4.3281   -4.0149    0.0000 C   0  0  0  0  0  0  0  0  0  0  0  0
    3.5171   -5.3479    0.0000 C   0  0  0  0  0  0  0  0  0  0  0  0
    1.9834   -5.3479    0.0000 C   0  0  0  0  0  0  0  0  0  0  0  0
    1.1804   -4.0149    0.0000 C   0  0  0  0  0  0  0  0  0  0  0  0
    1.9834   -2.6819    0.0000 C   0  0  0  0  0  0  0  0  0  0  0  0
    4.2558   -1.3330    0.0000 C   0  0  0  0  0  0  0  0  0  0  0  0
    4.2558   -6.6969    0.0000 C   0  0  0  0  0  0  0  0  0  0  0  0
    3.0513   -1.4053    0.0000 F   0  0  0  0  0  0  0  0  0  0  0  0
    5.4924   -5.0106    0.0000 F   0  0  0  0  0  0  0  0  0  0  0  0
    5.4924   -3.0192    0.0000 F   0  0  0  0  0  0  0  0  0  0  0  0
    4.8660   -5.3479    0.0000 F   0  0  0  0  0  0  0  0  0  0  0  0
    0.5379   -5.9019    0.0000 F   0  0  0  0  0  0  0  0  0  0  0  0
    2.2564   -6.8655    0.0000 F   0  0  0  0  0  0  0  0  0  0  0  0
    0.0000   -3.0192    0.0000 F   0  0  0  0  0  0  0  0  0  0  0  0
    0.0000   -5.0106    0.0000 F   0  0  0  0  0  0  0  0  0  0  0  0
    2.2564   -1.1643    0.0000 F   0  0  0  0  0  0  0  0  0  0  0  0
    0.5379   -2.1279    0.0000 F   0  0  0  0  0  0  0  0  0  0  0  0
    5.6049   -2.0878    0.0000 F   0  0  0  0  0  0  0  0  0  0  0  0
    5.0106    0.0000    0.0000 F   0  0  0  0  0  0  0  0  0  0  0  0
    2.9228   -0.5942    0.0000 F   0  0  0  0  0  0  0  0  0  0  0  0
    2.9228   -7.4356    0.0000 F   0  0  0  0  0  0  0  0  0  0  0  0
    5.0106   -8.0298    0.0000 F   0  0  0  0  0  0  0  0  0  0  0  0
    5.6049   -5.9420    0.0000 F   0  0  0  0  0  0  0  0  0  0  0  0
  1  2  1  0  0  0  0
  1  6  1  0  0  0  0
  1  7  1  0  0  0  0
  1  9  1  0  0  0  0
  2  3  1  0  0  0  0
  2 10  1  0  0  0  0
  2 11  1  0  0  0  0
  3  4  1  0  0  0  0
  3  8  1  0  0  0  0
  3 12  1  0  0  0  0
  4  5  1  0  0  0  0
  4 13  1  0  0  0  0
  4 14  1  0  0  0  0
  5  6  1  0  0  0  0
  5 15  1  0  0  0  0
  5 16  1  0  0  0  0
  6 17  1  0  0  0  0
  6 18  1  0  0  0  0
  7 19  1  0  0  0  0
  7 20  1  0  0  0  0
  7 21  1  0  0  0  0
  8 22  1  0  0  0  0
  8 23  1  0  0  0  0
  8 24  1  0  0  0  0
M  END
>  <INPUT>
DTXSID0036926

>  <FOUND_BY>
DSSTox_Substance_Id

>  <DTXSID>
DTXSID0036926

>  <PREFERRED_NAME>
Perfluoro-1,3-dimethylcyclohexane

>  <CASRN>
335-27-3

>  <INCHIKEY>
LOQGSOTUHASIHI-UHFFFAOYNA-N

>  <IUPAC_NAME>
1,1,2,2,3,3,4,5,5,6-Decafluoro-4,6-bis(trifluoromethyl)cyclohexane

>  <SMILES>
FC(F)(F)C1(F)C(F)(F)C(F)(F)C(F)(F)C(F)(C(F)(F)F)C1(F)F

>  <INCHI_STRING>
InChI=1/C8F16/c9-1(7(19,20)21)3(11,12)2(10,8(22,23)24)5(15,16)6(17,18)4(1,13)14


>  <MOLECULAR_FORMULA>
C8F16

>  <AVERAGE_MASS>
400.062

>  <MONOISOTOPIC_MASS>
399.974450608

>  <MOL_FILE>
MOL_FILE

$$$$

  -INDIGO-02112615072D

 28 27  0  0  0  0  0  0  0  0999 V2000
    9.8056    0.9486    0.0000 F   0  0  0  0  0  0  0  0  0  0  0  0
   11.3456   -1.7186    0.0000 F   0  0  0  0  0  0  0  0  0  0  0  0
   12.6793   -0.9486    0.0000 F   0  0  0  0  0  0  0  0  0  0  0  0
   11.1391    1.7186    0.0000 F   0  0  0  0  0  0  0  0  0  0  0  0
    8.4717    0.1786    0.0000 F   0  0  0  0  0  0  0  0  0  0  0  0
   10.0117   -2.4886    0.0000 F   0  0  0  0  0  0  0  0  0  0  0  0
   14.0129   -0.1786    0.0000 F   0  0  0  0  0  0  0  0  0  0  0  0
   12.4729    2.4886    0.0000 F   0  0  0  0  0  0  0  0  0  0  0  0
   15.3466    0.5914    0.0000 F   0  0  0  0  0  0  0  0  0  0  0  0
   13.8066    3.2586    0.0000 F   0  0  0  0  0  0  0  0  0  0  0  0
    7.1381   -0.5914    0.0000 F   0  0  0  0  0  0  0  0  0  0  0  0
    8.6781   -3.2586    0.0000 F   0  0  0  0  0  0  0  0  0  0  0  0
    5.8044   -1.3614    0.0000 F   0  0  0  0  0  0  0  0  0  0  0  0
    7.3444   -4.0286    0.0000 F   0  0  0  0  0  0  0  0  0  0  0  0
   16.6803    1.3614    0.0000 F   0  0  0  0  0  0  0  0  0  0  0  0
   15.1403    4.0286    0.0000 F   0  0  0  0  0  0  0  0  0  0  0  0
   18.5778    2.6951    0.0000 O   0  0  0  0  0  0  0  0  0  0  0  0
    3.9069   -2.6951    0.0000 O   0  0  0  0  0  0  0  0  0  0  0  0
   10.5756   -0.3851    0.0000 C   0  0  0  0  0  0  0  0  0  0  0  0
   11.9091    0.3851    0.0000 C   0  0  0  0  0  0  0  0  0  0  0  0
    9.2417   -1.1551    0.0000 C   0  0  0  0  0  0  0  0  0  0  0  0
   13.2429    1.1551    0.0000 C   0  0  0  0  0  0  0  0  0  0  0  0
    7.9081   -1.9251    0.0000 C   0  0  0  0  0  0  0  0  0  0  0  0
   14.5766    1.9251    0.0000 C   0  0  0  0  0  0  0  0  0  0  0  0
   15.9103    2.6951    0.0000 C   0  0  0  0  0  0  0  0  0  0  0  0
    6.5744   -2.6951    0.0000 C   0  0  0  0  0  0  0  0  0  0  0  0
    5.2407   -3.4651    0.0000 C   0  0  0  0  0  0  0  0  0  0  0  0
   17.2441    3.4651    0.0000 C   0  0  0  0  0  0  0  0  0  0  0  0
  1 19  1  0  0  0  0
  2 19  1  0  0  0  0
  3 20  1  0  0  0  0
  4 20  1  0  0  0  0
  5 21  1  0  0  0  0
  6 21  1  0  0  0  0
  7 22  1  0  0  0  0
  8 22  1  0  0  0  0
  9 24  1  0  0  0  0
 10 24  1  0  0  0  0
 11 23  1  0  0  0  0
 12 23  1  0  0  0  0
 13 26  1  0  0  0  0
 14 26  1  0  0  0  0
 15 25  1  0  0  0  0
 16 25  1  0  0  0  0
 17 28  1  0  0  0  0
 18 27  1  0  0  0  0
 19 20  1  0  0  0  0
 19 21  1  0  0  0  0
 20 22  1  0  0  0  0
 21 23  1  0  0  0  0
 22 24  1  0  0  0  0
 23 26  1  0  0  0  0
 24 25  1  0  0  0  0
 25 28  1  0  0  0  0
 26 27  1  0  0  0  0
M  END
>  <INPUT>
DTXSID50369896

>  <FOUND_BY>
DSSTox_Substance_Id

>  <DTXSID>
DTXSID50369896

>  <PREFERRED_NAME>
1H,1H,10H,10H-Perfluorodecane-1,10-diol

>  <CASRN>
754-96-1

>  <INCHIKEY>
NSKCTPBWPZPFHW-UHFFFAOYSA-N

>  <IUPAC_NAME>
2,2,3,3,4,4,5,5,6,6,7,7,8,8,9,9-Hexadecafluorodecane-1,10-diol

>  <SMILES>
OCC(F)(F)C(F)(F)C(F)(F)C(F)(F)C(F)(F)C(F)(F)C(F)(F)C(F)(F)CO

>  <INCHI_STRING>
InChI=1S/C10H6F16O2/c11-3(12,1-27)5(15,16)7(19,20)9(23,24)10(25,26)8(21,22)6(17,18)4(13,14)2-28/h27-28H,1-2H2

>  <MOLECULAR_FORMULA>
C10H6F16O2

>  <AVERAGE_MASS>
462.13

>  <MONOISOTOPIC_MASS>
462.011230041

>  <MOL_FILE>
MOL_FILE

$$$$

  -INDIGO-02112615072D

 37 35  0  0  0  0  0  0  0  0999 V2000
   14.9800    4.8498    0.0000 I   0  0  0  0  0  0  0  0  0  0  0  0
   12.2820    6.8751    0.0000 N   0  0  0  0  0  0  0  0  0  0  0  0
   12.2820    5.3351    0.0000 C   0  0  0  0  0  0  0  0  0  0  0  0
   10.9484    4.5651    0.0000 C   0  0  0  0  0  0  0  0  0  0  0  0
   10.9484    3.0251    0.0000 C   0  0  0  0  0  0  0  0  0  0  0  0
    9.6147    2.2551    0.0000 N   0  0  0  0  0  0  0  0  0  0  0  0
    9.6147    0.7151    0.0000 S   0  0  0  0  0  0  0  0  0  0  0  0
   11.1547    0.7151    0.0000 O   0  0  0  0  0  0  0  0  0  0  0  0
    8.0747    0.7151    0.0000 O   0  0  0  0  0  0  0  0  0  0  0  0
    9.6147   -0.8249    0.0000 C   0  0  0  0  0  0  0  0  0  0  0  0
    9.6147   -2.3649    0.0000 C   0  0  0  0  0  0  0  0  0  0  0  0
    9.6147   -3.9049    0.0000 C   0  0  0  0  0  0  0  0  0  0  0  0
    9.6147   -5.4449    0.0000 C   0  0  0  0  0  0  0  0  0  0  0  0
    9.6147   -6.9849    0.0000 C   0  0  0  0  0  0  0  0  0  0  0  0
    9.6147   -8.5249    0.0000 C   0  0  0  0  0  0  0  0  0  0  0  0
    9.6147  -10.0649    0.0000 C   0  0  0  0  0  0  0  0  0  0  0  0
    9.6147  -11.6047    0.0000 C   0  0  0  0  0  0  0  0  0  0  0  0
    9.6147  -13.1447    0.0000 F   0  0  0  0  0  0  0  0  0  0  0  0
   11.1547  -11.6047    0.0000 F   0  0  0  0  0  0  0  0  0  0  0  0
    8.0747  -11.6047    0.0000 F   0  0  0  0  0  0  0  0  0  0  0  0
   11.1547  -10.0649    0.0000 F   0  0  0  0  0  0  0  0  0  0  0  0
    8.0747  -10.0649    0.0000 F   0  0  0  0  0  0  0  0  0  0  0  0
   11.1547   -8.5249    0.0000 F   0  0  0  0  0  0  0  0  0  0  0  0
    8.0747   -8.5249    0.0000 F   0  0  0  0  0  0  0  0  0  0  0  0
   11.1547   -6.9849    0.0000 F   0  0  0  0  0  0  0  0  0  0  0  0
    8.0747   -6.9849    0.0000 F   0  0  0  0  0  0  0  0  0  0  0  0
   11.1547   -5.4449    0.0000 F   0  0  0  0  0  0  0  0  0  0  0  0
    8.0747   -5.4449    0.0000 F   0  0  0  0  0  0  0  0  0  0  0  0
   11.1547   -3.9049    0.0000 F   0  0  0  0  0  0  0  0  0  0  0  0
    8.0747   -3.9049    0.0000 F   0  0  0  0  0  0  0  0  0  0  0  0
   11.1547   -2.3649    0.0000 F   0  0  0  0  0  0  0  0  0  0  0  0
    8.0747   -2.3649    0.0000 F   0  0  0  0  0  0  0  0  0  0  0  0
   11.1547   -0.8249    0.0000 F   0  0  0  0  0  0  0  0  0  0  0  0
    8.0747   -0.8249    0.0000 F   0  0  0  0  0  0  0  0  0  0  0  0
   12.2820    8.4151    0.0000 C   0  0  0  0  0  0  0  0  0  0  0  0
   13.8220    6.8751    0.0000 C   0  0  0  0  0  0  0  0  0  0  0  0
   10.7420    6.8751    0.0000 C   0  0  0  0  0  0  0  0  0  0  0  0
  2  3  1  0  0  0  0
  3  4  1  0  0  0  0
  4  5  1  0  0  0  0
  5  6  1  0  0  0  0
  6  7  1  0  0  0  0
  7  8  2  0  0  0  0
  7  9  2  0  0  0  0
  7 10  1  0  0  0  0
 10 11  1  0  0  0  0
 11 12  1  0  0  0  0
 12 13  1  0  0  0  0
 13 14  1  0  0  0  0
 14 15  1  0  0  0  0
 15 16  1  0  0  0  0
 16 17  1  0  0  0  0
 17 18  1  0  0  0  0
 17 19  1  0  0  0  0
 17 20  1  0  0  0  0
 16 21  1  0  0  0  0
 16 22  1  0  0  0  0
 15 23  1  0  0  0  0
 15 24  1  0  0  0  0
 14 25  1  0  0  0  0
 14 26  1  0  0  0  0
 13 27  1  0  0  0  0
 13 28  1  0  0  0  0
 12 29  1  0  0  0  0
 12 30  1  0  0  0  0
 11 31  1  0  0  0  0
 11 32  1  0  0  0  0
 10 33  1  0  0  0  0
 10 34  1  0  0  0  0
  2 35  1  0  0  0  0
  2 36  1  0  0  0  0
  2 37  1  0  0  0  0
M  CHG  2   1  -1   2   1
M  END
>  <INPUT>
DTXSID8051419

>  <FOUND_BY>
DSSTox_Substance_Id

>  <DTXSID>
DTXSID8051419

>  <PREFERRED_NAME>
N-[(Perfluorooctylsulfonamido)propyl]-N,N,N-trimethylammonium iodide

>  <CASRN>
1652-63-7

>  <INCHIKEY>
MLIMEVJPZQAQQE-UHFFFAOYSA-M

>  <IUPAC_NAME>
3-[(1,1,2,2,3,3,4,4,5,5,6,6,7,7,8,8,8-Heptadecafluorooctane-1-sulfonyl)amino]-N,N,N-trimethylpropan-1-aminium iodide

>  <SMILES>
[I-].C[N+](C)(C)CCCNS(=O)(=O)C(F)(F)C(F)(F)C(F)(F)C(F)(F)C(F)(F)C(F)(F)C(F)(F)C(F)(F)F

>  <INCHI_STRING>
InChI=1S/C14H16F17N2O2S.HI/c1-33(2,3)6-4-5-32-36(34,35)14(30,31)12(25,26)10(21,22)8(17,18)7(15,16)9(19,20)11(23,24)13(27,28)29;/h32H,4-6H2,1-3H3;1H/q+1;/p-1

>  <MOLECULAR_FORMULA>
C14H16F17IN2O2S

>  <AVERAGE_MASS>
726.23

>  <MONOISOTOPIC_MASS>
725.97057

>  <MOL_FILE>
MOL_FILE

$$$$

  -INDIGO-02112615072D

 16 16  0  0  0  0  0  0  0  0999 V2000
    1.3337    2.3100    0.0000 C   0  0  0  0  0  0  0  0  0  0  0  0
    2.6673    1.5400    0.0000 C   0  0  0  0  0  0  0  0  0  0  0  0
    2.6673    0.0000    0.0000 C   0  0  0  0  0  0  0  0  0  0  0  0
    4.1839    0.2675    0.0000 F   0  0  0  0  0  0  0  0  0  0  0  0
    3.1941   -1.4470    0.0000 F   0  0  0  0  0  0  0  0  0  0  0  0
    1.3337   -0.7700    0.0000 C   0  0  0  0  0  0  0  0  0  0  0  0
    0.0000    0.0000    0.0000 C   0  0  0  0  0  0  0  0  0  0  0  0
    0.0000    1.5400    0.0000 C   0  0  0  0  0  0  0  0  0  0  0  0
   -1.5391    1.5938    0.0000 F   0  0  0  0  0  0  0  0  0  0  0  0
   -0.8161    2.8459    0.0000 F   0  0  0  0  0  0  0  0  0  0  0  0
   -1.3337   -0.7700    0.0000 F   0  0  0  0  0  0  0  0  0  0  0  0
    1.3337   -2.3100    0.0000 F   0  0  0  0  0  0  0  0  0  0  0  0
    3.4834    2.8459    0.0000 F   0  0  0  0  0  0  0  0  0  0  0  0
    4.2063    1.5938    0.0000 F   0  0  0  0  0  0  0  0  0  0  0  0
    2.0567    3.6697    0.0000 F   0  0  0  0  0  0  0  0  0  0  0  0
    0.6108    3.6697    0.0000 F   0  0  0  0  0  0  0  0  0  0  0  0
  1  2  1  0  0  0  0
  2  3  1  0  0  0  0
  3  4  1  0  0  0  0
  3  5  1  0  0  0  0
  3  6  1  0  0  0  0
  6  7  2  0  0  0  0
  7  8  1  0  0  0  0
  1  8  1  0  0  0  0
  8  9  1  0  0  0  0
  8 10  1  0  0  0  0
  7 11  1  0  0  0  0
  6 12  1  0  0  0  0
  2 13  1  0  0  0  0
  2 14  1  0  0  0  0
  1 15  1  0  0  0  0
  1 16  1  0  0  0  0
M  END
>  <INPUT>
DTXSID8074659

>  <FOUND_BY>
DSSTox_Substance_Id

>  <DTXSID>
DTXSID8074659

>  <PREFERRED_NAME>
Decafluorocyclohexene

>  <CASRN>
355-75-9

>  <INCHIKEY>
ZFFLXJVVPHACEG-UHFFFAOYSA-N

>  <IUPAC_NAME>
1,2,3,3,4,4,5,5,6,6-Decafluorocyclohex-1-ene

>  <SMILES>
FC1=C(F)C(F)(F)C(F)(F)C(F)(F)C1(F)F

>  <INCHI_STRING>
InChI=1S/C6F10/c7-1-2(8)4(11,12)6(15,16)5(13,14)3(1,9)10

>  <MOLECULAR_FORMULA>
C6F10

>  <AVERAGE_MASS>
262.05

>  <MONOISOTOPIC_MASS>
261.98403163

>  <MOL_FILE>
MOL_FILE

$$$$

  -INDIGO-02112615072D

 17 16  0  0  0  0  0  0  0  0999 V2000
    6.3112    1.3337    0.0000 F   0  0  0  0  0  0  0  0  0  0  0  0
    7.8512   -1.3337    0.0000 F   0  0  0  0  0  0  0  0  0  0  0  0
    4.9775    0.5637    0.0000 F   0  0  0  0  0  0  0  0  0  0  0  0
    6.5175   -2.1037    0.0000 F   0  0  0  0  0  0  0  0  0  0  0  0
    7.6449    2.1037    0.0000 F   0  0  0  0  0  0  0  0  0  0  0  0
    9.1849   -0.5637    0.0000 F   0  0  0  0  0  0  0  0  0  0  0  0
    3.0800   -0.7700    0.0000 F   0  0  0  0  0  0  0  0  0  0  0  0
    4.4137   -3.0800    0.0000 F   0  0  0  0  0  0  0  0  0  0  0  0
    9.7485    3.0800    0.0000 F   0  0  0  0  0  0  0  0  0  0  0  0
   12.4161    1.5400    0.0000 F   0  0  0  0  0  0  0  0  0  0  0  0
   11.0824   -0.7700    0.0000 F   0  0  0  0  0  0  0  0  0  0  0  0
    7.0812    0.0000    0.0000 C   0  0  0  0  0  0  0  0  0  0  0  0
    5.7475   -0.7700    0.0000 C   0  0  0  0  0  0  0  0  0  0  0  0
    8.4149    0.7700    0.0000 C   0  0  0  0  0  0  0  0  0  0  0  0
    4.4137   -1.5400    0.0000 C   0  0  0  0  0  0  0  0  0  0  0  0
    9.7485    1.5400    0.0000 C   0  0  0  0  0  0  0  0  0  0  0  0
   11.0824    0.7700    0.0000 C   0  0  0  0  0  0  0  0  0  0  0  0
  1 12  1  0  0  0  0
  2 12  1  0  0  0  0
  3 13  1  0  0  0  0
  4 13  1  0  0  0  0
  5 14  1  0  0  0  0
  6 14  1  0  0  0  0
  7 15  1  0  0  0  0
  8 15  1  0  0  0  0
  9 16  1  0  0  0  0
 10 17  1  0  0  0  0
 11 17  1  0  0  0  0
 12 13  1  0  0  0  0
 12 14  1  0  0  0  0
 13 15  1  0  0  0  0
 14 16  1  0  0  0  0
 16 17  2  0  0  0  0
M  END
>  <INPUT>
DTXSID10379850

>  <FOUND_BY>
DSSTox_Substance_Id

>  <DTXSID>
DTXSID10379850

>  <PREFERRED_NAME>
6H-Perfluorohex-1-ene

>  <CASRN>
1767-94-8

>  <INCHIKEY>
DDWZJDVOCYVHKD-UHFFFAOYSA-N

>  <IUPAC_NAME>
1,1,2,3,3,4,4,5,5,6,6-Undecafluorohex-1-ene

>  <SMILES>
FC(F)C(F)(F)C(F)(F)C(F)(F)C(F)=C(F)F

>  <INCHI_STRING>
InChI=1S/C6HF11/c7-1(2(8)9)4(12,13)6(16,17)5(14,15)3(10)11/h3H

>  <MOLECULAR_FORMULA>
C6HF11

>  <AVERAGE_MASS>
282.056

>  <MONOISOTOPIC_MASS>
281.990259825

>  <MOL_FILE>
MOL_FILE

$$$$

  -INDIGO-02112615072D

 15 14  0  0  0  0  0  0  0  0999 V2000
    9.7485    0.4881    0.0000 S   0  0  0  0  0  0  0  0  0  0  0  0
    4.9775    1.0519    0.0000 F   0  0  0  0  0  0  0  0  0  0  0  0
    6.5175   -1.6154    0.0000 F   0  0  0  0  0  0  0  0  0  0  0  0
    3.0800   -0.2819    0.0000 F   0  0  0  0  0  0  0  0  0  0  0  0
    4.4137   -2.5919    0.0000 F   0  0  0  0  0  0  0  0  0  0  0  0
   12.4161    2.0281    0.0000 F   0  0  0  0  0  0  0  0  0  0  0  0
   11.8524   -0.0754    0.0000 F   0  0  0  0  0  0  0  0  0  0  0  0
   10.3124    2.5919    0.0000 F   0  0  0  0  0  0  0  0  0  0  0  0
    8.4149   -0.2819    0.0000 O   0  0  0  0  0  0  0  0  0  0  0  0
    8.9785    1.8219    0.0000 O   0  0  0  0  0  0  0  0  0  0  0  0
   10.5187   -0.8454    0.0000 O   0  0  0  0  0  0  0  0  0  0  0  0
    7.0812    0.4881    0.0000 C   0  0  0  0  0  0  0  0  0  0  0  0
    5.7475   -0.2819    0.0000 C   0  0  0  0  0  0  0  0  0  0  0  0
    4.4137   -1.0519    0.0000 C   0  0  0  0  0  0  0  0  0  0  0  0
   11.0824    1.2581    0.0000 C   0  0  0  0  0  0  0  0  0  0  0  0
  1  9  1  0  0  0  0
  1 10  2  0  0  0  0
  1 11  2  0  0  0  0
  1 15  1  0  0  0  0
  2 13  1  0  0  0  0
  3 13  1  0  0  0  0
  4 14  1  0  0  0  0
  5 14  1  0  0  0  0
  6 15  1  0  0  0  0
  7 15  1  0  0  0  0
  8 15  1  0  0  0  0
  9 12  1  0  0  0  0
 12 13  1  0  0  0  0
 13 14  1  0  0  0  0
M  END
>  <INPUT>
DTXSID20396477

>  <FOUND_BY>
DSSTox_Substance_Id

>  <DTXSID>
DTXSID20396477

>  <PREFERRED_NAME>
1H,1H,3H-Perfluoropropyl triflate

>  <CASRN>
6401-02-1

>  <INCHIKEY>
OSWSZHMBICDPQH-UHFFFAOYSA-N

>  <IUPAC_NAME>
2,2,3,3-Tetrafluoropropyl trifluoromethanesulfonate

>  <SMILES>
FC(F)C(F)(F)COS(=O)(=O)C(F)(F)F

>  <INCHI_STRING>
InChI=1S/C4H3F7O3S/c5-2(6)3(7,8)1-14-15(12,13)4(9,10)11/h2H,1H2

>  <MOLECULAR_FORMULA>
C4H3F7O3S

>  <AVERAGE_MASS>
264.11

>  <MONOISOTOPIC_MASS>
263.969112272

>  <MOL_FILE>
MOL_FILE

$$$$

  -INDIGO-02112615072D

 14 13  0  0  0  0  0  0  0  0999 V2000
    6.5175   -2.1037    0.0000 F   0  0  0  0  0  0  0  0  0  0  0  0
    8.4149    0.7700    0.0000 F   0  0  0  0  0  0  0  0  0  0  0  0
    7.0812    1.5400    0.0000 F   0  0  0  0  0  0  0  0  0  0  0  0
    7.8512   -1.3337    0.0000 F   0  0  0  0  0  0  0  0  0  0  0  0
    3.0800   -2.3100    0.0000 F   0  0  0  0  0  0  0  0  0  0  0  0
    3.6437   -0.2065    0.0000 F   0  0  0  0  0  0  0  0  0  0  0  0
    5.1837   -2.8737    0.0000 F   0  0  0  0  0  0  0  0  0  0  0  0
    3.6437    1.3337    0.0000 O   0  0  0  0  0  0  0  0  0  0  0  0
    5.7475    1.8973    0.0000 O   0  0  0  0  0  0  0  0  0  0  0  0
    5.7475   -0.7700    0.0000 C   0  0  0  0  0  0  0  0  0  0  0  0
    7.0812    0.0000    0.0000 C   0  0  0  0  0  0  0  0  0  0  0  0
    4.4137   -1.5400    0.0000 C   0  0  0  0  0  0  0  0  0  0  0  0
    4.9775    0.5637    0.0000 C   0  0  0  0  0  0  0  0  0  0  0  0
    3.6437    2.8737    0.0000 C   0  0  0  0  0  0  0  0  0  0  0  0
  1 10  1  0  0  0  0
  2 11  1  0  0  0  0
  3 11  1  0  0  0  0
  4 11  1  0  0  0  0
  5 12  1  0  0  0  0
  6 12  1  0  0  0  0
  7 12  1  0  0  0  0
  8 13  1  0  0  0  0
  8 14  1  0  0  0  0
  9 13  2  0  0  0  0
 10 11  1  0  0  0  0
 10 12  1  0  0  0  0
 10 13  1  0  0  0  0
M  END
>  <INPUT>
DTXSID50379576

>  <FOUND_BY>
DSSTox_Substance_Id

>  <DTXSID>
DTXSID50379576

>  <PREFERRED_NAME>
Methyl tetrafluoro-2-(trifluoromethyl)propionate

>  <CASRN>
680-05-7

>  <INCHIKEY>
CGMUKBZUGMXXEF-UHFFFAOYSA-N

>  <IUPAC_NAME>
Methyl 2,3,3,3-tetrafluoro-2-(trifluoromethyl)propanoate

>  <SMILES>
COC(=O)C(F)(C(F)(F)F)C(F)(F)F

>  <INCHI_STRING>
InChI=1S/C5H3F7O2/c1-14-2(13)3(6,4(7,8)9)5(10,11)12/h1H3

>  <MOLECULAR_FORMULA>
C5H3F7O2

>  <AVERAGE_MASS>
228.066

>  <MONOISOTOPIC_MASS>
228.002126478

>  <MOL_FILE>
MOL_FILE

$$$$

  -INDIGO-02112615072D

 26 25  0  0  0  0  0  0  0  0999 V2000
    8.9785    2.1037    0.0000 F   0  0  0  0  0  0  0  0  0  0  0  0
   10.5187   -0.5637    0.0000 F   0  0  0  0  0  0  0  0  0  0  0  0
    7.6449    1.3337    0.0000 F   0  0  0  0  0  0  0  0  0  0  0  0
    9.1849   -1.3337    0.0000 F   0  0  0  0  0  0  0  0  0  0  0  0
   11.8524    0.2065    0.0000 F   0  0  0  0  0  0  0  0  0  0  0  0
   10.3124    2.8737    0.0000 F   0  0  0  0  0  0  0  0  0  0  0  0
    6.3112    0.5637    0.0000 F   0  0  0  0  0  0  0  0  0  0  0  0
    7.8512   -2.1037    0.0000 F   0  0  0  0  0  0  0  0  0  0  0  0
   13.1861    0.9765    0.0000 F   0  0  0  0  0  0  0  0  0  0  0  0
   11.6461    3.6437    0.0000 F   0  0  0  0  0  0  0  0  0  0  0  0
    4.9775   -0.2065    0.0000 F   0  0  0  0  0  0  0  0  0  0  0  0
    6.5175   -2.8737    0.0000 F   0  0  0  0  0  0  0  0  0  0  0  0
    3.0800   -3.0800    0.0000 F   0  0  0  0  0  0  0  0  0  0  0  0
    3.6437   -0.9765    0.0000 F   0  0  0  0  0  0  0  0  0  0  0  0
    5.1837   -3.6437    0.0000 F   0  0  0  0  0  0  0  0  0  0  0  0
   17.7509    2.3100    0.0000 O   0  0  0  0  0  0  0  0  0  0  0  0
    9.7485    0.7700    0.0000 C   0  0  0  0  0  0  0  0  0  0  0  0
    8.4149    0.0000    0.0000 C   0  0  0  0  0  0  0  0  0  0  0  0
   11.0824    1.5400    0.0000 C   0  0  0  0  0  0  0  0  0  0  0  0
   12.4161    2.3100    0.0000 C   0  0  0  0  0  0  0  0  0  0  0  0
    7.0812   -0.7700    0.0000 C   0  0  0  0  0  0  0  0  0  0  0  0
   13.7497    3.0800    0.0000 C   0  0  0  0  0  0  0  0  0  0  0  0
    5.7475   -1.5400    0.0000 C   0  0  0  0  0  0  0  0  0  0  0  0
   15.0834    2.3100    0.0000 C   0  0  0  0  0  0  0  0  0  0  0  0
    4.4137   -2.3100    0.0000 C   0  0  0  0  0  0  0  0  0  0  0  0
   16.4171    3.0800    0.0000 C   0  0  0  0  0  0  0  0  0  0  0  0
  1 17  1  0  0  0  0
  2 17  1  0  0  0  0
  3 18  1  0  0  0  0
  4 18  1  0  0  0  0
  5 19  1  0  0  0  0
  6 19  1  0  0  0  0
  7 21  1  0  0  0  0
  8 21  1  0  0  0  0
  9 20  1  0  0  0  0
 10 20  1  0  0  0  0
 11 23  1  0  0  0  0
 12 23  1  0  0  0  0
 13 25  1  0  0  0  0
 14 25  1  0  0  0  0
 15 25  1  0  0  0  0
 16 26  1  0  0  0  0
 17 18  1  0  0  0  0
 17 19  1  0  0  0  0
 18 21  1  0  0  0  0
 19 20  1  0  0  0  0
 20 22  1  0  0  0  0
 21 23  1  0  0  0  0
 22 24  1  0  0  0  0
 23 25  1  0  0  0  0
 24 26  1  0  0  0  0
M  END
>  <INPUT>
DTXSID50382621

>  <FOUND_BY>
DSSTox_Substance_Id

>  <DTXSID>
DTXSID50382621

>  <PREFERRED_NAME>
7:3 Fluorotelomer alcohol

>  <CASRN>
25600-66-2

>  <INCHIKEY>
LWCLGUDCFDTQBF-UHFFFAOYSA-N

>  <IUPAC_NAME>
4,4,5,5,6,6,7,7,8,8,9,9,10,10,10-Pentadecafluorodecan-1-ol

>  <SMILES>
OCCCC(F)(F)C(F)(F)C(F)(F)C(F)(F)C(F)(F)C(F)(F)C(F)(F)F

>  <INCHI_STRING>
InChI=1S/C10H7F15O/c11-4(12,2-1-3-26)5(13,14)6(15,16)7(17,18)8(19,20)9(21,22)10(23,24)25/h26H,1-3H2


>  <MOLECULAR_FORMULA>
C10H7F15O

>  <AVERAGE_MASS>
428.141

>  <MONOISOTOPIC_MASS>
428.02573729

>  <MOL_FILE>
MOL_FILE

$$$$

  -INDIGO-02112615072D

 15 14  0  0  0  0  0  0  0  0999 V2000
   -1.1550   -2.6950    0.0000 C   0  0  0  0  0  0  0  0  0  0  0  0
    0.3850   -2.6950    0.0000 C   0  0  0  0  0  0  0  0  0  0  0  0
    1.9250   -2.6950    0.0000 C   0  0  0  0  0  0  0  0  0  0  0  0
    3.4650   -2.6950    0.0000 C   0  0  0  0  0  0  0  0  0  0  0  0
    5.0050   -2.6950    0.0000 O   0  0  0  0  0  0  0  0  0  0  0  0
    5.7750   -4.0287    0.0000 C   0  0  0  0  0  0  0  0  0  0  0  0
    3.4650   -1.1550    0.0000 F   0  0  0  0  0  0  0  0  0  0  0  0
    3.4650   -4.2350    0.0000 F   0  0  0  0  0  0  0  0  0  0  0  0
    1.9250   -1.1550    0.0000 F   0  0  0  0  0  0  0  0  0  0  0  0
    1.9250   -4.2350    0.0000 F   0  0  0  0  0  0  0  0  0  0  0  0
    0.3850   -1.1550    0.0000 F   0  0  0  0  0  0  0  0  0  0  0  0
    0.3850   -4.2350    0.0000 F   0  0  0  0  0  0  0  0  0  0  0  0
   -2.6950   -2.6950    0.0000 F   0  0  0  0  0  0  0  0  0  0  0  0
   -1.1550   -1.1550    0.0000 F   0  0  0  0  0  0  0  0  0  0  0  0
   -1.1550   -4.2350    0.0000 F   0  0  0  0  0  0  0  0  0  0  0  0
  1  2  1  0  0  0  0
  2  3  1  0  0  0  0
  3  4  1  0  0  0  0
  4  5  1  0  0  0  0
  5  6  1  0  0  0  0
  4  7  1  0  0  0  0
  4  8  1  0  0  0  0
  3  9  1  0  0  0  0
  3 10  1  0  0  0  0
  2 11  1  0  0  0  0
  2 12  1  0  0  0  0
  1 13  1  0  0  0  0
  1 14  1  0  0  0  0
  1 15  1  0  0  0  0
M  END
>  <INPUT>
DTXSID4073120

>  <FOUND_BY>
DSSTox_Substance_Id

>  <DTXSID>
DTXSID4073120

>  <PREFERRED_NAME>
Perfluorobutyl methyl ether

>  <CASRN>
163702-07-6

>  <INCHIKEY>
OKIYQFLILPKULA-UHFFFAOYSA-N

>  <IUPAC_NAME>
1,1,1,2,2,3,3,4,4-Nonafluoro-4-methoxybutane

>  <SMILES>
COC(F)(F)C(F)(F)C(F)(F)C(F)(F)F

>  <INCHI_STRING>
InChI=1S/C5H3F9O/c1-15-5(13,14)3(8,9)2(6,7)4(10,11)12/h1H3


>  <MOLECULAR_FORMULA>
C5H3F9O

>  <AVERAGE_MASS>
250.064

>  <MONOISOTOPIC_MASS>
250.004018184

>  <MOL_FILE>
MOL_FILE

$$$$

  -INDIGO-02112615072D

 14 13  0  0  0  0  0  0  0  0999 V2000
    8.4149    0.2819    0.0000 S   0  0  0  0  0  0  0  0  0  0  0  0
    3.0800   -1.2581    0.0000 F   0  0  0  0  0  0  0  0  0  0  0  0
    3.6437    0.8454    0.0000 F   0  0  0  0  0  0  0  0  0  0  0  0
    5.1837   -1.8219    0.0000 F   0  0  0  0  0  0  0  0  0  0  0  0
   13.7497   -1.2581    0.0000 F   0  0  0  0  0  0  0  0  0  0  0  0
   13.1861    0.8454    0.0000 F   0  0  0  0  0  0  0  0  0  0  0  0
   11.6461   -1.8219    0.0000 F   0  0  0  0  0  0  0  0  0  0  0  0
    7.0812   -0.4881    0.0000 O   0  0  0  0  0  0  0  0  0  0  0  0
    9.7485   -0.4881    0.0000 O   0  0  0  0  0  0  0  0  0  0  0  0
    8.4149    1.8219    0.0000 O   0  0  0  0  0  0  0  0  0  0  0  0
    5.7475    0.2819    0.0000 C   0  0  0  0  0  0  0  0  0  0  0  0
   11.0824    0.2819    0.0000 C   0  0  0  0  0  0  0  0  0  0  0  0
    4.4137   -0.4881    0.0000 C   0  0  0  0  0  0  0  0  0  0  0  0
   12.4161   -0.4881    0.0000 C   0  0  0  0  0  0  0  0  0  0  0  0
  1  8  1  0  0  0  0
  1  9  1  0  0  0  0
  1 10  2  0  0  0  0
  2 13  1  0  0  0  0
  3 13  1  0  0  0  0
  4 13  1  0  0  0  0
  5 14  1  0  0  0  0
  6 14  1  0  0  0  0
  7 14  1  0  0  0  0
  8 11  1  0  0  0  0
  9 12  1  0  0  0  0
 11 13  1  0  0  0  0
 12 14  1  0  0  0  0
M  END
>  <INPUT>
DTXSID00312357

>  <FOUND_BY>
DSSTox_Substance_Id

>  <DTXSID>
DTXSID00312357

>  <PREFERRED_NAME>
Bis(2,2,2-trifluoroethyl)sulfite

>  <CASRN>
53749-89-6

>  <INCHIKEY>
HVNOLEGWKGMONA-UHFFFAOYSA-N

>  <IUPAC_NAME>
Bis(2,2,2-trifluoroethyl) sulfite

>  <SMILES>
FC(F)(F)COS(=O)OCC(F)(F)F

>  <INCHI_STRING>
InChI=1S/C4H4F6O3S/c5-3(6,7)1-12-14(11)13-2-4(8,9)10/h1-2H2

>  <MOLECULAR_FORMULA>
C4H4F6O3S

>  <AVERAGE_MASS>
246.12

>  <MONOISOTOPIC_MASS>
245.978534141

>  <MOL_FILE>
MOL_FILE

$$$$

  -INDIGO-02112615072D

 22 21  0  0  0  0  0  0  0  0999 V2000
   -4.2380   -0.0182    0.0000 C   0  0  0  0  0  0  0  0  0  0  0  0
   -2.6980   -0.0109    0.0000 C   0  0  0  0  0  0  0  0  0  0  0  0
   -1.1582   -0.0036    0.0000 C   0  0  0  0  0  0  0  0  0  0  0  0
    0.3818    0.0036    0.0000 C   0  0  0  0  0  0  0  0  0  0  0  0
    1.9217    0.0109    0.0000 C   0  0  0  0  0  0  0  0  0  0  0  0
    3.4617    0.0182    0.0000 C   0  0  0  0  0  0  0  0  0  0  0  0
    5.0017    0.0255    0.0000 C   0  0  0  0  0  0  0  0  0  0  0  0
    5.7779   -1.3045    0.0000 O   0  0  0  0  0  0  0  0  0  0  0  0
    5.7653    1.3627    0.0000 O   0  0  0  0  0  0  0  0  0  0  0  0
   -5.7779   -0.0255    0.0000 F   0  0  0  0  0  0  0  0  0  0  0  0
   -4.2453    1.5217    0.0000 F   0  0  0  0  0  0  0  0  0  0  0  0
   -4.2307   -1.5582    0.0000 F   0  0  0  0  0  0  0  0  0  0  0  0
   -2.7053    1.5290    0.0000 F   0  0  0  0  0  0  0  0  0  0  0  0
   -2.6907   -1.5509    0.0000 F   0  0  0  0  0  0  0  0  0  0  0  0
   -1.1654    1.5363    0.0000 F   0  0  0  0  0  0  0  0  0  0  0  0
   -1.1508   -1.5436    0.0000 F   0  0  0  0  0  0  0  0  0  0  0  0
    0.3745    1.5436    0.0000 F   0  0  0  0  0  0  0  0  0  0  0  0
    0.3890   -1.5363    0.0000 F   0  0  0  0  0  0  0  0  0  0  0  0
    1.9144    1.5509    0.0000 F   0  0  0  0  0  0  0  0  0  0  0  0
    1.9290   -1.5290    0.0000 F   0  0  0  0  0  0  0  0  0  0  0  0
    3.4544    1.5582    0.0000 F   0  0  0  0  0  0  0  0  0  0  0  0
    3.4690   -1.5217    0.0000 F   0  0  0  0  0  0  0  0  0  0  0  0
  1  2  1  0  0  0  0
  1 10  1  0  0  0  0
  1 11  1  0  0  0  0
  1 12  1  0  0  0  0
  2  3  1  0  0  0  0
  2 13  1  0  0  0  0
  2 14  1  0  0  0  0
  3  4  1  0  0  0  0
  3 15  1  0  0  0  0
  3 16  1  0  0  0  0
  4  5  1  0  0  0  0
  4 17  1  0  0  0  0
  4 18  1  0  0  0  0
  5  6  1  0  0  0  0
  5 19  1  0  0  0  0
  5 20  1  0  0  0  0
  6  7  1  0  0  0  0
  6 21  1  0  0  0  0
  6 22  1  0  0  0  0
  7  8  1  0  0  0  0
  7  9  2  0  0  0  0
M  END
>  <INPUT>
DTXSID1037303

>  <FOUND_BY>
DSSTox_Substance_Id

>  <DTXSID>
DTXSID1037303

>  <PREFERRED_NAME>
Perfluoroheptanoic acid

>  <CASRN>
375-85-9

>  <INCHIKEY>
ZWBAMYVPMDSJGQ-UHFFFAOYSA-N

>  <IUPAC_NAME>
Tridecafluoroheptanoic acid

>  <SMILES>
OC(=O)C(F)(F)C(F)(F)C(F)(F)C(F)(F)C(F)(F)C(F)(F)F

>  <INCHI_STRING>
InChI=1S/C7HF13O2/c8-2(9,1(21)22)3(10,11)4(12,13)5(14,15)6(16,17)7(18,19)20/h(H,21,22)


>  <MOLECULAR_FORMULA>
C7HF13O2

>  <AVERAGE_MASS>
364.062

>  <MONOISOTOPIC_MASS>
363.976895391

>  <MOL_FILE>
MOL_FILE

$$$$

  -INDIGO-02112615072D

 13 12  0  0  0  0  0  0  0  0999 V2000
    2.3100    1.3337    0.0000 O   0  0  0  0  0  0  0  0  0  0  0  0
    1.5400    0.0000    0.0000 C   0  0  0  0  0  0  0  0  0  0  0  0
    2.3100   -1.3337    0.0000 C   0  0  0  0  0  0  0  0  0  0  0  0
    0.9763   -2.1037    0.0000 F   0  0  0  0  0  0  0  0  0  0  0  0
    3.6437   -0.5637    0.0000 F   0  0  0  0  0  0  0  0  0  0  0  0
    3.0800   -2.6673    0.0000 C   0  0  0  0  0  0  0  0  0  0  0  0
    1.7463   -3.4373    0.0000 F   0  0  0  0  0  0  0  0  0  0  0  0
    4.4137   -1.8973    0.0000 F   0  0  0  0  0  0  0  0  0  0  0  0
    3.8500   -4.0010    0.0000 C   0  0  0  0  0  0  0  0  0  0  0  0
    4.6200   -5.3347    0.0000 F   0  0  0  0  0  0  0  0  0  0  0  0
    2.5163   -4.7710    0.0000 F   0  0  0  0  0  0  0  0  0  0  0  0
    5.1837   -3.2310    0.0000 F   0  0  0  0  0  0  0  0  0  0  0  0
    0.0000    0.0000    0.0000 Cl  0  0  0  0  0  0  0  0  0  0  0  0
  1  2  2  0  0  0  0
  2  3  1  0  0  0  0
  3  4  1  0  0  0  0
  3  5  1  0  0  0  0
  3  6  1  0  0  0  0
  6  7  1  0  0  0  0
  6  8  1  0  0  0  0
  6  9  1  0  0  0  0
  9 10  1  0  0  0  0
  9 11  1  0  0  0  0
  9 12  1  0  0  0  0
  2 13  1  0  0  0  0
M  END
>  <INPUT>
DTXSID9059915

>  <FOUND_BY>
DSSTox_Substance_Id

>  <DTXSID>
DTXSID9059915

>  <PREFERRED_NAME>
Heptafluorobutyryl Chloride

>  <CASRN>
375-16-6

>  <INCHIKEY>
WFELVFKXQJYPSL-UHFFFAOYSA-N

>  <IUPAC_NAME>
Heptafluorobutanoyl chloride

>  <SMILES>
FC(F)(F)C(F)(F)C(F)(F)C(Cl)=O

>  <INCHI_STRING>
InChI=1S/C4ClF7O/c5-1(13)2(6,7)3(8,9)4(10,11)12

>  <MOLECULAR_FORMULA>
C4ClF7O

>  <AVERAGE_MASS>
232.48

>  <MONOISOTOPIC_MASS>
231.9525895

>  <MOL_FILE>
MOL_FILE

$$$$

  -INDIGO-02112615072D

 18 17  0  0  0  0  0  0  0  0999 V2000
    8.1533    0.3078    0.0000 F   0  0  0  0  0  0  0  0  0  0  0  0
   10.8207   -1.2322    0.0000 F   0  0  0  0  0  0  0  0  0  0  0  0
    8.9233    1.6415    0.0000 F   0  0  0  0  0  0  0  0  0  0  0  0
   11.5907    0.1015    0.0000 F   0  0  0  0  0  0  0  0  0  0  0  0
    7.1770   -0.2559    0.0000 F   0  0  0  0  0  0  0  0  0  0  0  0
    7.1770   -3.3359    0.0000 F   0  0  0  0  0  0  0  0  0  0  0  0
   14.1070    2.2052    0.0000 F   0  0  0  0  0  0  0  0  0  0  0  0
   12.5670    3.7452    0.0000 F   0  0  0  0  0  0  0  0  0  0  0  0
   12.5670    0.6652    0.0000 F   0  0  0  0  0  0  0  0  0  0  0  0
    8.7170   -1.7959    0.0000 O   0  0  0  0  0  0  0  0  0  0  0  0
   11.0270    2.2052    0.0000 O   0  0  0  0  0  0  0  0  0  0  0  0
    4.8670   -3.1295    0.0000 O   0  0  0  0  0  0  0  0  0  0  0  0
    4.8670   -0.4622    0.0000 O   0  0  0  0  0  0  0  0  0  0  0  0
    9.4870   -0.4622    0.0000 C   0  0  0  0  0  0  0  0  0  0  0  0
   10.2570    0.8715    0.0000 C   0  0  0  0  0  0  0  0  0  0  0  0
    7.1770   -1.7959    0.0000 C   0  0  0  0  0  0  0  0  0  0  0  0
   12.5670    2.2052    0.0000 C   0  0  0  0  0  0  0  0  0  0  0  0
    5.6370   -1.7959    0.0000 C   0  0  0  0  0  0  0  0  0  0  0  0
  1 14  1  0  0  0  0
  2 14  1  0  0  0  0
  3 15  1  0  0  0  0
  4 15  1  0  0  0  0
  5 16  1  0  0  0  0
  6 16  1  0  0  0  0
  7 17  1  0  0  0  0
  8 17  1  0  0  0  0
  9 17  1  0  0  0  0
 10 14  1  0  0  0  0
 10 16  1  0  0  0  0
 11 15  1  0  0  0  0
 11 17  1  0  0  0  0
 12 18  1  0  0  0  0
 13 18  2  0  0  0  0
 14 15  1  0  0  0  0
 16 18  1  0  0  0  0
M  END
>  <INPUT>
DTXSID30382063

>  <FOUND_BY>
DSSTox_Substance_Id

>  <DTXSID>
DTXSID30382063

>  <PREFERRED_NAME>
Perfluoro-3,6-dioxaheptanoic acid

>  <CASRN>
151772-58-6

>  <INCHIKEY>
PPWRLPJIHGWGFH-UHFFFAOYSA-N

>  <IUPAC_NAME>
Difluoro[1,1,2,2-tetrafluoro-2-(trifluoromethoxy)ethoxy]acetic acid

>  <SMILES>
OC(=O)C(F)(F)OC(F)(F)C(F)(F)OC(F)(F)F

>  <INCHI_STRING>
InChI=1S/C5HF9O4/c6-2(7,1(15)16)17-3(8,9)4(10,11)18-5(12,13)14/h(H,15,16)

>  <MOLECULAR_FORMULA>
C5HF9O4

>  <AVERAGE_MASS>
296.045

>  <MONOISOTOPIC_MASS>
295.973111979

>  <MOL_FILE>
MOL_FILE

$$$$

  -INDIGO-02112615072D

 13 12  0  0  0  0  0  0  0  0999 V2000
    2.0004    1.8219    0.0000 F   0  0  0  0  0  0  0  0  0  0  0  0
    1.4369   -1.8219    0.0000 F   0  0  0  0  0  0  0  0  0  0  0  0
   -0.1031    0.8454    0.0000 F   0  0  0  0  0  0  0  0  0  0  0  0
    4.6681   -1.2581    0.0000 F   0  0  0  0  0  0  0  0  0  0  0  0
    4.1043    0.8454    0.0000 F   0  0  0  0  0  0  0  0  0  0  0  0
    2.5643   -1.8219    0.0000 F   0  0  0  0  0  0  0  0  0  0  0  0
   -0.6669   -1.2581    0.0000 O   0  0  0  0  0  0  0  0  0  0  0  0
    2.0004    0.2819    0.0000 C   0  0  0  0  0  0  0  0  0  0  0  0
    0.6669   -0.4881    0.0000 C   0  0  0  0  0  0  0  0  0  0  0  0
    3.3343   -0.4881    0.0000 C   0  0  0  0  0  0  0  0  0  0  0  0
   -2.0004   -0.4881    0.0000 C   0  0  0  0  0  0  0  0  0  0  0  0
   -3.3343   -1.2581    0.0000 C   0  0  0  0  0  0  0  0  0  0  0  0
   -4.6681   -0.4881    0.0000 C   0  0  0  0  0  0  0  0  0  0  0  0
  1  8  1  0  0  0  0
  2  9  1  0  0  0  0
  3  9  1  0  0  0  0
  4 10  1  0  0  0  0
  5 10  1  0  0  0  0
  6 10  1  0  0  0  0
  7  9  1  0  0  0  0
  7 11  1  0  0  0  0
  8  9  1  0  0  0  0
  8 10  1  0  0  0  0
 11 12  1  0  0  0  0
 12 13  2  0  0  0  0
M  END
>  <INPUT>
DTXSID50880495

>  <FOUND_BY>
DSSTox_Substance_Id

>  <DTXSID>
DTXSID50880495

>  <PREFERRED_NAME>
2H-Hexafluoropropyl allyl ether

>  <CASRN>
59158-81-5

>  <INCHIKEY>
ADXLBHULARLUSE-UHFFFAOYNA-N

>  <IUPAC_NAME>
3-(1,1,2,3,3,3-Hexafluoropropoxy)prop-1-ene

>  <SMILES>
FC(C(F)(F)F)C(F)(F)OCC=C

>  <INCHI_STRING>
InChI=1S/C6H6F6O/c1-2-3-13-6(11,12)4(7)5(8,9)10/h2,4H,1,3H2

>  <MOLECULAR_FORMULA>
C6H6F6O

>  <AVERAGE_MASS>
208.103

>  <MONOISOTOPIC_MASS>
208.032283791

>  <MOL_FILE>
MOL_FILE

$$$$

  -INDIGO-02112615072D

 16 15  0  0  0  0  0  0  0  0999 V2000
    7.0812    2.3100    0.0000 F   0  0  0  0  0  0  0  0  0  0  0  0
    3.0800   -1.5400    0.0000 F   0  0  0  0  0  0  0  0  0  0  0  0
    3.6437    0.5637    0.0000 F   0  0  0  0  0  0  0  0  0  0  0  0
    4.4137   -2.3100    0.0000 F   0  0  0  0  0  0  0  0  0  0  0  0
   11.0824   -1.5400    0.0000 F   0  0  0  0  0  0  0  0  0  0  0  0
   10.5187    0.5637    0.0000 F   0  0  0  0  0  0  0  0  0  0  0  0
    9.7487   -2.3100    0.0000 F   0  0  0  0  0  0  0  0  0  0  0  0
    4.9775    1.3337    0.0000 O   0  0  0  0  0  0  0  0  0  0  0  0
    5.8925   -1.7921    0.0000 O   0  0  0  0  0  0  0  0  0  0  0  0
    9.1849    1.3337    0.0000 O   0  0  0  0  0  0  0  0  0  0  0  0
    8.0616   -1.5004    0.0000 O   0  0  0  0  0  0  0  0  0  0  0  0
    7.0812    0.7700    0.0000 C   0  0  0  0  0  0  0  0  0  0  0  0
    5.7475    0.0000    0.0000 C   0  0  0  0  0  0  0  0  0  0  0  0
    8.4149    0.0000    0.0000 C   0  0  0  0  0  0  0  0  0  0  0  0
    4.4137   -0.7700    0.0000 C   0  0  0  0  0  0  0  0  0  0  0  0
    9.7485   -0.7700    0.0000 C   0  0  0  0  0  0  0  0  0  0  0  0
  1 12  1  0  0  0  0
  2 15  1  0  0  0  0
  3 15  1  0  0  0  0
  4 15  1  0  0  0  0
  5 16  1  0  0  0  0
  6 16  1  0  0  0  0
  7 16  1  0  0  0  0
  8 13  1  0  0  0  0
  9 13  1  0  0  0  0
 10 14  1  0  0  0  0
 11 14  1  0  0  0  0
 12 13  1  0  0  0  0
 12 14  1  0  0  0  0
 13 15  1  0  0  0  0
 14 16  1  0  0  0  0
M  END
>  <INPUT>
DTXSID70379295

>  <FOUND_BY>
DSSTox_Substance_Id

>  <DTXSID>
DTXSID70379295

>  <PREFERRED_NAME>
3H-Perfluoro-2,2,4,4-tetrahydroxypentane

>  <CASRN>
77953-71-0

>  <INCHIKEY>
NZCXKNVJJQJKKN-UHFFFAOYSA-N

>  <IUPAC_NAME>
1,1,1,3,5,5,5-Heptafluoropentane-2,2,4,4-tetrol

>  <SMILES>
OC(O)(C(F)C(O)(O)C(F)(F)F)C(F)(F)F

>  <INCHI_STRING>
InChI=1S/C5H5F7O4/c6-1(2(13,14)4(7,8)9)3(15,16)5(10,11)12/h1,13-16H


>  <MOLECULAR_FORMULA>
C5H5F7O4

>  <AVERAGE_MASS>
262.08

>  <MONOISOTOPIC_MASS>
262.007605782

>  <MOL_FILE>
MOL_FILE

$$$$

  -INDIGO-02112615072D

 23 22  0  0  0  0  0  0  0  0999 V2000
    1.5400  -10.7800    0.0000 F   0  0  0  0  0  0  0  0  0  0  0  0
    1.5400   -9.2400    0.0000 C   0  0  0  0  0  0  0  0  0  0  0  0
    3.0800   -9.2400    0.0000 F   0  0  0  0  0  0  0  0  0  0  0  0
    0.0000   -9.2400    0.0000 F   0  0  0  0  0  0  0  0  0  0  0  0
    1.5400   -7.7000    0.0000 C   0  0  0  0  0  0  0  0  0  0  0  0
    3.0800   -7.7000    0.0000 F   0  0  0  0  0  0  0  0  0  0  0  0
    0.0000   -7.7000    0.0000 F   0  0  0  0  0  0  0  0  0  0  0  0
    1.5400   -6.1600    0.0000 C   0  0  0  0  0  0  0  0  0  0  0  0
    3.0800   -6.1600    0.0000 F   0  0  0  0  0  0  0  0  0  0  0  0
    0.0000   -6.1600    0.0000 F   0  0  0  0  0  0  0  0  0  0  0  0
    1.5400   -4.6200    0.0000 C   0  0  0  0  0  0  0  0  0  0  0  0
    3.0800   -4.6200    0.0000 F   0  0  0  0  0  0  0  0  0  0  0  0
    0.0000   -4.6200    0.0000 F   0  0  0  0  0  0  0  0  0  0  0  0
    1.5400   -3.0800    0.0000 C   0  0  0  0  0  0  0  0  0  0  0  0
    3.0800   -3.0800    0.0000 F   0  0  0  0  0  0  0  0  0  0  0  0
    0.0000   -3.0800    0.0000 F   0  0  0  0  0  0  0  0  0  0  0  0
    1.5400   -1.5400    0.0000 C   0  0  0  0  0  0  0  0  0  0  0  0
    3.0800   -1.5400    0.0000 F   0  0  0  0  0  0  0  0  0  0  0  0
    0.0000   -1.5400    0.0000 F   0  0  0  0  0  0  0  0  0  0  0  0
    1.5400    0.0000    0.0000 C   0  0  0  0  0  0  0  0  0  0  0  0
    1.5400    1.5400    0.0000 F   0  0  0  0  0  0  0  0  0  0  0  0
    3.0800    0.0000    0.0000 F   0  0  0  0  0  0  0  0  0  0  0  0
    0.0000    0.0000    0.0000 Br  0  0  0  0  0  0  0  0  0  0  0  0
  1  2  1  0  0  0  0
  2  3  1  0  0  0  0
  2  4  1  0  0  0  0
  2  5  1  0  0  0  0
  5  6  1  0  0  0  0
  5  7  1  0  0  0  0
  5  8  1  0  0  0  0
  8  9  1  0  0  0  0
  8 10  1  0  0  0  0
  8 11  1  0  0  0  0
 11 12  1  0  0  0  0
 11 13  1  0  0  0  0
 11 14  1  0  0  0  0
 14 15  1  0  0  0  0
 14 16  1  0  0  0  0
 14 17  1  0  0  0  0
 17 18  1  0  0  0  0
 17 19  1  0  0  0  0
 17 20  1  0  0  0  0
 20 21  1  0  0  0  0
 20 22  1  0  0  0  0
 20 23  1  0  0  0  0
M  END
>  <INPUT>
DTXSID9059919

>  <FOUND_BY>
DSSTox_Substance_Id

>  <DTXSID>
DTXSID9059919

>  <PREFERRED_NAME>
1-Bromopentadecafluoroheptane

>  <CASRN>
375-88-2

>  <INCHIKEY>
VPQQZKWYZYVTMU-UHFFFAOYSA-N

>  <IUPAC_NAME>
1-Bromo-1,1,2,2,3,3,4,4,5,5,6,6,7,7,7-pentadecafluoroheptane

>  <SMILES>
FC(F)(F)C(F)(F)C(F)(F)C(F)(F)C(F)(F)C(F)(F)C(F)(F)Br

>  <INCHI_STRING>
InChI=1S/C7BrF15/c8-6(19,20)4(15,16)2(11,12)1(9,10)3(13,14)5(17,18)7(21,22)23

>  <MOLECULAR_FORMULA>
C7BrF15

>  <AVERAGE_MASS>
448.957

>  <MONOISOTOPIC_MASS>
447.894385

>  <MOL_FILE>
MOL_FILE

$$$$

  -INDIGO-02112615072D

 15 14  0  0  0  0  0  0  0  0999 V2000
   -0.7699    0.9486    0.0000 F   0  0  0  0  0  0  0  0  0  0  0  0
    0.7701   -1.7186    0.0000 F   0  0  0  0  0  0  0  0  0  0  0  0
    0.5636    1.7186    0.0000 F   0  0  0  0  0  0  0  0  0  0  0  0
    2.1036   -0.9486    0.0000 F   0  0  0  0  0  0  0  0  0  0  0  0
   -2.1036    0.1786    0.0000 F   0  0  0  0  0  0  0  0  0  0  0  0
   -0.5636   -2.4886    0.0000 F   0  0  0  0  0  0  0  0  0  0  0  0
    4.0011    1.9251    0.0000 F   0  0  0  0  0  0  0  0  0  0  0  0
    3.4376   -0.1786    0.0000 F   0  0  0  0  0  0  0  0  0  0  0  0
    1.8976    2.4886    0.0000 F   0  0  0  0  0  0  0  0  0  0  0  0
   -4.0011   -1.1551    0.0000 O   0  0  0  0  0  0  0  0  0  0  0  0
    0.0001   -0.3851    0.0000 C   0  0  0  0  0  0  0  0  0  0  0  0
    1.3336    0.3851    0.0000 C   0  0  0  0  0  0  0  0  0  0  0  0
   -1.3336   -1.1551    0.0000 C   0  0  0  0  0  0  0  0  0  0  0  0
    2.6676    1.1551    0.0000 C   0  0  0  0  0  0  0  0  0  0  0  0
   -2.6674   -1.9251    0.0000 C   0  0  0  0  0  0  0  0  0  0  0  0
  1 11  1  0  0  0  0
  2 11  1  0  0  0  0
  3 12  1  0  0  0  0
  4 12  1  0  0  0  0
  5 13  1  0  0  0  0
  6 13  1  0  0  0  0
  7 14  1  0  0  0  0
  8 14  1  0  0  0  0
  9 14  1  0  0  0  0
 10 15  1  0  0  0  0
 11 12  1  0  0  0  0
 11 13  1  0  0  0  0
 12 14  1  0  0  0  0
 13 15  1  0  0  0  0
M  END
>  <INPUT>
DTXSID20880129

>  <FOUND_BY>
DSSTox_Substance_Id

>  <DTXSID>
DTXSID20880129

>  <PREFERRED_NAME>
1H,1H-Perfluoro-1-pentanol

>  <CASRN>
355-28-2

>  <INCHIKEY>
PJRIQFXPYMVWOU-UHFFFAOYSA-N

>  <IUPAC_NAME>
2,2,3,3,4,4,5,5,5-Nonafluoropentan-1-ol

>  <SMILES>
OCC(F)(F)C(F)(F)C(F)(F)C(F)(F)F

>  <INCHI_STRING>
InChI=1S/C5H3F9O/c6-2(7,1-15)3(8,9)4(10,11)5(12,13)14/h15H,1H2

>  <MOLECULAR_FORMULA>
C5H3F9O

>  <AVERAGE_MASS>
250.064

>  <MONOISOTOPIC_MASS>
250.004018184

>  <MOL_FILE>
MOL_FILE

$$$$

  -INDIGO-02112615072D

 17 16  0  0  0  0  0  0  0  0999 V2000
    8.4717    0.1786    0.0000 F   0  0  0  0  0  0  0  0  0  0  0  0
   10.0117   -2.4886    0.0000 F   0  0  0  0  0  0  0  0  0  0  0  0
    9.8056    0.9486    0.0000 F   0  0  0  0  0  0  0  0  0  0  0  0
   11.3456   -1.7186    0.0000 F   0  0  0  0  0  0  0  0  0  0  0  0
   11.1391    1.7186    0.0000 F   0  0  0  0  0  0  0  0  0  0  0  0
   12.6793   -0.9486    0.0000 F   0  0  0  0  0  0  0  0  0  0  0  0
   14.5766    1.9251    0.0000 F   0  0  0  0  0  0  0  0  0  0  0  0
   14.0129   -0.1786    0.0000 F   0  0  0  0  0  0  0  0  0  0  0  0
   12.4729    2.4886    0.0000 F   0  0  0  0  0  0  0  0  0  0  0  0
    3.9069   -1.1551    0.0000 O   0  0  0  0  0  0  0  0  0  0  0  0
    9.2417   -1.1551    0.0000 C   0  0  0  0  0  0  0  0  0  0  0  0
   10.5756   -0.3851    0.0000 C   0  0  0  0  0  0  0  0  0  0  0  0
    7.9081   -1.9251    0.0000 C   0  0  0  0  0  0  0  0  0  0  0  0
   11.9091    0.3851    0.0000 C   0  0  0  0  0  0  0  0  0  0  0  0
    6.5744   -1.1551    0.0000 C   0  0  0  0  0  0  0  0  0  0  0  0
   13.2429    1.1551    0.0000 C   0  0  0  0  0  0  0  0  0  0  0  0
    5.2407   -1.9251    0.0000 C   0  0  0  0  0  0  0  0  0  0  0  0
  1 11  1  0  0  0  0
  2 11  1  0  0  0  0
  3 12  1  0  0  0  0
  4 12  1  0  0  0  0
  5 14  1  0  0  0  0
  6 14  1  0  0  0  0
  7 16  1  0  0  0  0
  8 16  1  0  0  0  0
  9 16  1  0  0  0  0
 10 17  1  0  0  0  0
 11 12  1  0  0  0  0
 11 13  1  0  0  0  0
 12 14  1  0  0  0  0
 13 15  1  0  0  0  0
 14 16  1  0  0  0  0
 15 17  1  0  0  0  0
M  END
>  <INPUT>
DTXSID40381269

>  <FOUND_BY>
DSSTox_Substance_Id

>  <DTXSID>
DTXSID40381269

>  <PREFERRED_NAME>
3-(Perfluorobutyl)-1-propanol

>  <CASRN>
83310-97-8

>  <INCHIKEY>
OVBNEUIFHDEQHD-UHFFFAOYSA-N

>  <IUPAC_NAME>
4,4,5,5,6,6,7,7,7-Nonafluoroheptan-1-ol

>  <SMILES>
OCCCC(F)(F)C(F)(F)C(F)(F)C(F)(F)F

>  <INCHI_STRING>
InChI=1S/C7H7F9O/c8-4(9,2-1-3-17)5(10,11)6(12,13)7(14,15)16/h17H,1-3H2

>  <MOLECULAR_FORMULA>
C7H7F9O

>  <AVERAGE_MASS>
278.118

>  <MONOISOTOPIC_MASS>
278.035318312

>  <MOL_FILE>
MOL_FILE

$$$$

  -INDIGO-02112615072D

 11 10  0  0  0  0  0  0  0  0999 V2000
    9.7485    1.6432    0.0000 Cl  0  0  0  0  0  0  0  0  0  0  0  0
    6.3112    1.4368    0.0000 F   0  0  0  0  0  0  0  0  0  0  0  0
    7.8512   -1.2305    0.0000 F   0  0  0  0  0  0  0  0  0  0  0  0
    7.6449    2.2070    0.0000 F   0  0  0  0  0  0  0  0  0  0  0  0
    9.1849   -0.4605    0.0000 F   0  0  0  0  0  0  0  0  0  0  0  0
    4.4137    0.1032    0.0000 O   0  0  0  0  0  0  0  0  0  0  0  0
    5.7475   -2.2070    0.0000 O   0  0  0  0  0  0  0  0  0  0  0  0
    7.0812    0.1032    0.0000 C   0  0  0  0  0  0  0  0  0  0  0  0
    8.4149    0.8732    0.0000 C   0  0  0  0  0  0  0  0  0  0  0  0
    5.7475   -0.6668    0.0000 C   0  0  0  0  0  0  0  0  0  0  0  0
    3.0800   -0.6668    0.0000 C   0  0  0  0  0  0  0  0  0  0  0  0
  1  9  1  0  0  0  0
  2  8  1  0  0  0  0
  3  8  1  0  0  0  0
  4  9  1  0  0  0  0
  5  9  1  0  0  0  0
  6 10  1  0  0  0  0
  6 11  1  0  0  0  0
  7 10  2  0  0  0  0
  8  9  1  0  0  0  0
  8 10  1  0  0  0  0
M  END
>  <INPUT>
DTXSID40382115

>  <FOUND_BY>
DSSTox_Substance_Id

>  <DTXSID>
DTXSID40382115

>  <PREFERRED_NAME>
Methyl 3-chloroperfluoropropanoate

>  <CASRN>
127589-63-3

>  <INCHIKEY>
YHMRYDXPCZSESQ-UHFFFAOYSA-N

>  <IUPAC_NAME>
Methyl 3-chloro-2,2,3,3-tetrafluoropropanoate

>  <SMILES>
COC(=O)C(F)(F)C(F)(F)Cl

>  <INCHI_STRING>
InChI=1S/C4H3ClF4O2/c1-11-2(10)3(6,7)4(5,8)9/h1H3

>  <MOLECULAR_FORMULA>
C4H3ClF4O2

>  <AVERAGE_MASS>
194.51

>  <MONOISOTOPIC_MASS>
193.9757697

>  <MOL_FILE>
MOL_FILE

$$$$

  -INDIGO-02112615072D

 21 20  0  0  0  0  0  0  0  0999 V2000
    1.3712   -3.6940    0.0000 C   0  0  0  0  0  0  0  0  0  0  0  0
    0.0378   -2.9235    0.0000 O   0  0  0  0  0  0  0  0  0  0  0  0
    0.0374   -1.3837    0.0000 C   0  0  0  0  0  0  0  0  0  0  0  0
    0.0331    0.1416    0.0000 F   0  0  0  0  0  0  0  0  0  0  0  0
   -1.4972   -1.3932    0.0000 C   0  0  0  0  0  0  0  0  0  0  0  0
   -1.5019   -2.9241    0.0000 F   0  0  0  0  0  0  0  0  0  0  0  0
   -1.4977    0.1464    0.0000 F   0  0  0  0  0  0  0  0  0  0  0  0
   -3.0370   -1.3936    0.0000 C   0  0  0  0  0  0  0  0  0  0  0  0
   -3.0417   -2.9245    0.0000 F   0  0  0  0  0  0  0  0  0  0  0  0
   -3.0376    0.1461    0.0000 F   0  0  0  0  0  0  0  0  0  0  0  0
   -4.5767   -1.3943    0.0000 F   0  0  0  0  0  0  0  0  0  0  0  0
    1.5427   -1.1189    0.0000 C   0  0  0  0  0  0  0  0  0  0  0  0
    1.8040   -2.6383    0.0000 F   0  0  0  0  0  0  0  0  0  0  0  0
    0.9682    2.1745    0.0000 C   0  0  0  0  0  0  0  0  0  0  0  0
   -0.5462    1.9043    0.0000 F   0  0  0  0  0  0  0  0  0  0  0  0
    2.4879    2.4358    0.0000 F   0  0  0  0  0  0  0  0  0  0  0  0
    0.7069    3.6940    0.0000 F   0  0  0  0  0  0  0  0  0  0  0  0
    3.0624   -0.8574    0.0000 C   0  0  0  0  0  0  0  0  0  0  0  0
    2.7923    0.6569    0.0000 F   0  0  0  0  0  0  0  0  0  0  0  0
    3.3237   -2.3770    0.0000 F   0  0  0  0  0  0  0  0  0  0  0  0
    4.5767   -0.5873    0.0000 F   0  0  0  0  0  0  0  0  0  0  0  0
  1  2  1  0  0  0  0
  2  3  1  0  0  0  0
  3  4  1  0  0  0  0
  3  5  1  0  0  0  0
  3 12  1  0  0  0  0
  5  6  1  0  0  0  0
  5  7  1  0  0  0  0
  5  8  1  0  0  0  0
  8  9  1  0  0  0  0
  8 10  1  0  0  0  0
  8 11  1  0  0  0  0
 12 13  1  0  0  0  0
 12 14  1  0  0  0  0
 12 18  1  0  0  0  0
 14 15  1  0  0  0  0
 14 16  1  0  0  0  0
 14 17  1  0  0  0  0
 18 19  1  0  0  0  0
 18 20  1  0  0  0  0
 18 21  1  0  0  0  0
M  END
>  <INPUT>
DTXSID20881338

>  <FOUND_BY>
DSSTox_Substance_Id

>  <DTXSID>
DTXSID20881338

>  <PREFERRED_NAME>
3-Methoxyperfluoro(2-methylpentane)

>  <CASRN>
132182-92-4

>  <INCHIKEY>
QKAGYSDHEJITFV-UHFFFAOYNA-N

>  <IUPAC_NAME>
1,1,1,2,2,3,4,5,5,5-Decafluoro-3-methoxy-4-(trifluoromethyl)pentane

>  <SMILES>
COC(F)(C(F)(F)C(F)(F)F)C(F)(C(F)(F)F)C(F)(F)F

>  <INCHI_STRING>
InChI=1/C7H3F13O/c1-21-4(11,3(9,10)7(18,19)20)2(8,5(12,13)14)6(15,16)17/h1H3


>  <MOLECULAR_FORMULA>
C7H3F13O

>  <AVERAGE_MASS>
350.079

>  <MONOISOTOPIC_MASS>
349.997630836

>  <MOL_FILE>
MOL_FILE

$$$$

  -INDIGO-02112615072D

  9  8  0  0  0  0  0  0  0  0999 V2000
    1.5400   -1.5400    0.0000 F   0  0  0  0  0  0  0  0  0  0  0  0
    1.5400    0.0000    0.0000 C   0  0  0  0  0  0  0  0  0  0  0  0
    1.5400    1.5400    0.0000 C   0  0  0  0  0  0  0  0  0  0  0  0
    0.2063    2.3100    0.0000 C   0  0  0  0  0  0  0  0  0  0  0  0
   -1.1273    3.0800    0.0000 F   0  0  0  0  0  0  0  0  0  0  0  0
    0.9763    3.6437    0.0000 F   0  0  0  0  0  0  0  0  0  0  0  0
   -0.5637    0.9763    0.0000 C   0  0  0  0  0  0  0  0  0  0  0  0
    3.0800    0.0000    0.0000 F   0  0  0  0  0  0  0  0  0  0  0  0
    0.0000    0.0000    0.0000 F   0  0  0  0  0  0  0  0  0  0  0  0
  1  2  1  0  0  0  0
  2  3  1  0  0  0  0
  3  4  1  0  0  0  0
  4  5  1  0  0  0  0
  4  6  1  0  0  0  0
  4  7  1  0  0  0  0
  2  8  1  0  0  0  0
  2  9  1  0  0  0  0
M  END
>  <INPUT>
DTXSID5073901

>  <FOUND_BY>
DSSTox_Substance_Id

>  <DTXSID>
DTXSID5073901

>  <PREFERRED_NAME>
1,1,1,3,3-Pentafluorobutane

>  <CASRN>
406-58-6

>  <INCHIKEY>
WZLFPVPRZGTCKP-UHFFFAOYSA-N

>  <IUPAC_NAME>
1,1,1,3,3-Pentafluorobutane

>  <SMILES>
CC(F)(F)CC(F)(F)F

>  <INCHI_STRING>
InChI=1S/C4H5F5/c1-3(5,6)2-4(7,8)9/h2H2,1H3

>  <MOLECULAR_FORMULA>
C4H5F5

>  <AVERAGE_MASS>
148.076

>  <MONOISOTOPIC_MASS>
148.031140976

>  <MOL_FILE>
MOL_FILE

$$$$

  -INDIGO-02112615072D

 11 10  0  0  0  0  0  0  0  0999 V2000
   -1.1274   -6.1600    0.0000 O   0  0  0  0  0  0  0  0  0  0  0  0
    0.2063   -5.3900    0.0000 C   0  0  0  0  0  0  0  0  0  0  0  0
    0.2063   -3.8500    0.0000 C   0  0  0  0  0  0  0  0  0  0  0  0
    1.5400   -3.0800    0.0000 C   0  0  0  0  0  0  0  0  0  0  0  0
    1.5400   -1.5400    0.0000 C   0  0  0  0  0  0  0  0  0  0  0  0
    3.0800   -1.5400    0.0000 F   0  0  0  0  0  0  0  0  0  0  0  0
    0.0000   -1.5400    0.0000 F   0  0  0  0  0  0  0  0  0  0  0  0
    1.5400    0.0000    0.0000 C   0  0  0  0  0  0  0  0  0  0  0  0
    1.5400    1.5400    0.0000 F   0  0  0  0  0  0  0  0  0  0  0  0
    3.0800    0.0000    0.0000 F   0  0  0  0  0  0  0  0  0  0  0  0
    0.0000    0.0000    0.0000 F   0  0  0  0  0  0  0  0  0  0  0  0
  1  2  1  0  0  0  0
  2  3  1  0  0  0  0
  3  4  1  0  0  0  0
  4  5  1  0  0  0  0
  5  6  1  0  0  0  0
  5  7  1  0  0  0  0
  5  8  1  0  0  0  0
  8  9  1  0  0  0  0
  8 10  1  0  0  0  0
  8 11  1  0  0  0  0
M  END
>  <INPUT>
DTXSID70869964

>  <FOUND_BY>
DSSTox_Substance_Id

>  <DTXSID>
DTXSID70869964

>  <PREFERRED_NAME>
3-(Perfluoroethyl)propanol

>  <CASRN>
148043-73-6

>  <INCHIKEY>
QROUUECTKRZFHF-UHFFFAOYSA-N

>  <IUPAC_NAME>
4,4,5,5,5-Pentafluoropentan-1-ol

>  <SMILES>
OCCCC(F)(F)C(F)(F)F

>  <INCHI_STRING>
InChI=1S/C5H7F5O/c6-4(7,2-1-3-11)5(8,9)10/h11H,1-3H2

>  <MOLECULAR_FORMULA>
C5H7F5O

>  <AVERAGE_MASS>
178.102

>  <MONOISOTOPIC_MASS>
178.04170566

>  <MOL_FILE>
MOL_FILE

$$$$

  -INDIGO-02112615072D

 14 13  0  0  0  0  0  0  0  0999 V2000
   -2.1911   -3.5200    0.0000 C   0  0  0  0  0  0  0  0  0  0  0  0
   -0.8574   -2.7500    0.0000 C   0  0  0  0  0  0  0  0  0  0  0  0
   -0.8574   -1.2100    0.0000 N   0  0  0  0  0  0  0  0  0  0  0  0
   -2.1911   -0.4400    0.0000 C   0  0  0  0  0  0  0  0  0  0  0  0
   -2.1911    1.1000    0.0000 C   0  0  0  0  0  0  0  0  0  0  0  0
    0.4763   -0.4400    0.0000 C   0  0  0  0  0  0  0  0  0  0  0  0
    1.2463   -1.7737    0.0000 F   0  0  0  0  0  0  0  0  0  0  0  0
   -0.2937    0.8937    0.0000 F   0  0  0  0  0  0  0  0  0  0  0  0
    1.8100    0.3300    0.0000 C   0  0  0  0  0  0  0  0  0  0  0  0
    3.1436   -0.4400    0.0000 F   0  0  0  0  0  0  0  0  0  0  0  0
    1.8100    1.8700    0.0000 C   0  0  0  0  0  0  0  0  0  0  0  0
    1.8100    3.4100    0.0000 F   0  0  0  0  0  0  0  0  0  0  0  0
    3.3500    1.8700    0.0000 F   0  0  0  0  0  0  0  0  0  0  0  0
    0.2700    1.8700    0.0000 F   0  0  0  0  0  0  0  0  0  0  0  0
  1  2  1  0  0  0  0
  2  3  1  0  0  0  0
  3  4  1  0  0  0  0
  4  5  1  0  0  0  0
  3  6  1  0  0  0  0
  6  7  1  0  0  0  0
  6  8  1  0  0  0  0
  6  9  1  0  0  0  0
  9 10  1  0  0  0  0
  9 11  1  0  0  0  0
 11 12  1  0  0  0  0
 11 13  1  0  0  0  0
 11 14  1  0  0  0  0
M  END
>  <INPUT>
DTXSID20880124

>  <FOUND_BY>
DSSTox_Substance_Id

>  <DTXSID>
DTXSID20880124

>  <PREFERRED_NAME>
N,N-Diethyl-2H-perfluoropropanamine

>  <CASRN>
309-88-6

>  <INCHIKEY>
BNTFCVMJHBNJAR-UHFFFAOYNA-N

>  <IUPAC_NAME>
N,N-Diethyl-1,1,2,3,3,3-hexafluoropropan-1-amine

>  <SMILES>
CCN(CC)C(F)(F)C(F)C(F)(F)F

>  <INCHI_STRING>
InChI=1S/C7H11F6N/c1-3-14(4-2)7(12,13)5(8)6(9,10)11/h5H,3-4H2,1-2H3

>  <MOLECULAR_FORMULA>
C7H11F6N

>  <AVERAGE_MASS>
223.162

>  <MONOISOTOPIC_MASS>
223.079568336

>  <MOL_FILE>
MOL_FILE

$$$$

  -INDIGO-02112615072D

 14 13  0  0  0  0  0  0  0  0999 V2000
    1.5400    0.0000    0.0000 C   0  0  0  0  0  0  0  0  0  0  0  0
    1.5400   -1.5400    0.0000 C   0  0  0  0  0  0  0  0  0  0  0  0
    1.5400   -3.0800    0.0000 F   0  0  0  0  0  0  0  0  0  0  0  0
    3.0800   -1.5400    0.0000 F   0  0  0  0  0  0  0  0  0  0  0  0
    0.0000   -1.5400    0.0000 F   0  0  0  0  0  0  0  0  0  0  0  0
    1.5400    1.5400    0.0000 C   0  0  0  0  0  0  0  0  0  0  0  0
    2.8737    2.3100    0.0000 O   0  0  0  0  0  0  0  0  0  0  0  0
    2.8737    3.8500    0.0000 C   0  0  0  0  0  0  0  0  0  0  0  0
    4.2073    4.6200    0.0000 C   0  0  0  0  0  0  0  0  0  0  0  0
    4.2073    6.1600    0.0000 C   0  0  0  0  0  0  0  0  0  0  0  0
    5.5410    3.8500    0.0000 C   0  0  0  0  0  0  0  0  0  0  0  0
    1.5400    4.6200    0.0000 O   0  0  0  0  0  0  0  0  0  0  0  0
    3.0800    0.0000    0.0000 F   0  0  0  0  0  0  0  0  0  0  0  0
    0.0000    0.0000    0.0000 F   0  0  0  0  0  0  0  0  0  0  0  0
  1  2  1  0  0  0  0
  2  3  1  0  0  0  0
  2  4  1  0  0  0  0
  2  5  1  0  0  0  0
  1  6  1  0  0  0  0
  6  7  1  0  0  0  0
  7  8  1  0  0  0  0
  8  9  1  0  0  0  0
  9 10  2  0  0  0  0
  9 11  1  0  0  0  0
  8 12  2  0  0  0  0
  1 13  1  0  0  0  0
  1 14  1  0  0  0  0
M  END
>  <INPUT>
DTXSID3068465

>  <FOUND_BY>
DSSTox_Substance_Id

>  <DTXSID>
DTXSID3068465

>  <PREFERRED_NAME>
1H,1H-Perfluoropropyl methacrylate

>  <CASRN>
45115-53-5

>  <INCHIKEY>
CLISWDZSTWQFNX-UHFFFAOYSA-N

>  <IUPAC_NAME>
2,2,3,3,3-Pentafluoropropyl 2-methylprop-2-enoate

>  <SMILES>
CC(=C)C(=O)OCC(F)(F)C(F)(F)F

>  <INCHI_STRING>
InChI=1S/C7H7F5O2/c1-4(2)5(13)14-3-6(8,9)7(10,11)12/h1,3H2,2H3

>  <MOLECULAR_FORMULA>
C7H7F5O2

>  <AVERAGE_MASS>
218.123

>  <MONOISOTOPIC_MASS>
218.03662028

>  <MOL_FILE>
MOL_FILE

$$$$

  -INDIGO-02112615072D

 23 22  0  0  0  0  0  0  0  0999 V2000
    8.9785    1.4368    0.0000 F   0  0  0  0  0  0  0  0  0  0  0  0
   10.5187   -1.2305    0.0000 F   0  0  0  0  0  0  0  0  0  0  0  0
   10.3124    2.2070    0.0000 F   0  0  0  0  0  0  0  0  0  0  0  0
   11.8524   -0.4605    0.0000 F   0  0  0  0  0  0  0  0  0  0  0  0
    7.6449    0.6668    0.0000 F   0  0  0  0  0  0  0  0  0  0  0  0
    9.1849   -2.0005    0.0000 F   0  0  0  0  0  0  0  0  0  0  0  0
   13.1861    0.3095    0.0000 F   0  0  0  0  0  0  0  0  0  0  0  0
   11.6461    2.9770    0.0000 F   0  0  0  0  0  0  0  0  0  0  0  0
    6.3112   -0.1032    0.0000 F   0  0  0  0  0  0  0  0  0  0  0  0
    7.8512   -2.7705    0.0000 F   0  0  0  0  0  0  0  0  0  0  0  0
   15.0834    3.1832    0.0000 F   0  0  0  0  0  0  0  0  0  0  0  0
   14.5197    1.0795    0.0000 F   0  0  0  0  0  0  0  0  0  0  0  0
   12.9797    3.7470    0.0000 F   0  0  0  0  0  0  0  0  0  0  0  0
    5.7475   -3.7470    0.0000 O   0  0  0  0  0  0  0  0  0  0  0  0
    4.4137   -1.4368    0.0000 N   0  0  0  0  0  0  0  0  0  0  0  0
    9.7485    0.1032    0.0000 C   0  0  0  0  0  0  0  0  0  0  0  0
   11.0824    0.8732    0.0000 C   0  0  0  0  0  0  0  0  0  0  0  0
    8.4149   -0.6668    0.0000 C   0  0  0  0  0  0  0  0  0  0  0  0
   12.4161    1.6432    0.0000 C   0  0  0  0  0  0  0  0  0  0  0  0
    7.0812   -1.4368    0.0000 C   0  0  0  0  0  0  0  0  0  0  0  0
   13.7497    2.4132    0.0000 C   0  0  0  0  0  0  0  0  0  0  0  0
    5.7475   -2.2070    0.0000 C   0  0  0  0  0  0  0  0  0  0  0  0
    3.0800   -2.2070    0.0000 C   0  0  0  0  0  0  0  0  0  0  0  0
  1 16  1  0  0  0  0
  2 16  1  0  0  0  0
  3 17  1  0  0  0  0
  4 17  1  0  0  0  0
  5 18  1  0  0  0  0
  6 18  1  0  0  0  0
  7 19  1  0  0  0  0
  8 19  1  0  0  0  0
  9 20  1  0  0  0  0
 10 20  1  0  0  0  0
 11 21  1  0  0  0  0
 12 21  1  0  0  0  0
 13 21  1  0  0  0  0
 14 22  2  0  0  0  0
 15 22  1  0  0  0  0
 15 23  1  0  0  0  0
 16 17  1  0  0  0  0
 16 18  1  0  0  0  0
 17 19  1  0  0  0  0
 18 20  1  0  0  0  0
 19 21  1  0  0  0  0
 20 22  1  0  0  0  0
M  END
>  <INPUT>
DTXSID80389027

>  <FOUND_BY>
DSSTox_Substance_Id

>  <DTXSID>
DTXSID80389027

>  <PREFERRED_NAME>
N-Methylperfluoroheptanamide

>  <CASRN>
89932-74-1

>  <INCHIKEY>
GMDGDPMNUQLIPP-UHFFFAOYSA-N

>  <IUPAC_NAME>
2,2,3,3,4,4,5,5,6,6,7,7,7-Tridecafluoro-N-methylheptanamide

>  <SMILES>
CNC(=O)C(F)(F)C(F)(F)C(F)(F)C(F)(F)C(F)(F)C(F)(F)F

>  <INCHI_STRING>
InChI=1S/C8H4F13NO/c1-22-2(23)3(9,10)4(11,12)5(13,14)6(15,16)7(17,18)8(19,20)21/h1H3,(H,22,23)

>  <MOLECULAR_FORMULA>
C8H4F13NO

>  <AVERAGE_MASS>
377.105

>  <MONOISOTOPIC_MASS>
377.008529872

>  <MOL_FILE>
MOL_FILE

$$$$

  -INDIGO-02112615072D

 30 29  0  0  0  0  0  0  0  0999 V2000
    6.5839   -8.8294    0.0000 F   0  0  0  0  0  0  0  0  0  0  0  0
    7.9176   -8.0594    0.0000 C   0  0  0  0  0  0  0  0  0  0  0  0
    9.2513   -8.8294    0.0000 O   0  0  0  0  0  0  0  0  0  0  0  0
    7.9176   -6.5194    0.0000 C   0  0  0  0  0  0  0  0  0  0  0  0
    9.4576   -6.5194    0.0000 C   0  0  0  0  0  0  0  0  0  0  0  0
    7.9176   -4.9794    0.0000 F   0  0  0  0  0  0  0  0  0  0  0  0
   10.9976   -6.5194    0.0000 F   0  0  0  0  0  0  0  0  0  0  0  0
    9.4576   -4.9794    0.0000 F   0  0  0  0  0  0  0  0  0  0  0  0
    9.4576   -8.0594    0.0000 F   0  0  0  0  0  0  0  0  0  0  0  0
    6.3776   -6.5194    0.0000 O   0  0  0  0  0  0  0  0  0  0  0  0
    5.6076   -5.1857    0.0000 C   0  0  0  0  0  0  0  0  0  0  0  0
    4.8376   -3.8520    0.0000 C   0  0  0  0  0  0  0  0  0  0  0  0
    4.0676   -2.5183    0.0000 C   0  0  0  0  0  0  0  0  0  0  0  0
    6.9413   -4.4157    0.0000 F   0  0  0  0  0  0  0  0  0  0  0  0
    4.2739   -5.9557    0.0000 F   0  0  0  0  0  0  0  0  0  0  0  0
    3.5039   -4.6220    0.0000 F   0  0  0  0  0  0  0  0  0  0  0  0
    3.2976   -1.1847    0.0000 F   0  0  0  0  0  0  0  0  0  0  0  0
    2.7339   -3.2883    0.0000 F   0  0  0  0  0  0  0  0  0  0  0  0
    5.4013   -1.7483    0.0000 F   0  0  0  0  0  0  0  0  0  0  0  0
    6.1713   -3.0820    0.0000 O   0  0  0  0  0  0  0  0  0  0  0  0
    6.1713   -1.5420    0.0000 C   0  0  0  0  0  0  0  0  0  0  0  0
    6.1713   -0.0020    0.0000 C   0  0  0  0  0  0  0  0  0  0  0  0
    6.1713    1.5380    0.0000 C   0  0  0  0  0  0  0  0  0  0  0  0
    7.7113   -1.5420    0.0000 F   0  0  0  0  0  0  0  0  0  0  0  0
    4.7066   -1.0661    0.0000 F   0  0  0  0  0  0  0  0  0  0  0  0
    7.7113   -0.0020    0.0000 F   0  0  0  0  0  0  0  0  0  0  0  0
    4.6313   -0.0020    0.0000 F   0  0  0  0  0  0  0  0  0  0  0  0
    6.1713    3.0780    0.0000 F   0  0  0  0  0  0  0  0  0  0  0  0
    7.7113    1.5380    0.0000 F   0  0  0  0  0  0  0  0  0  0  0  0
    4.6313    1.5380    0.0000 F   0  0  0  0  0  0  0  0  0  0  0  0
  1  2  1  0  0  0  0
  2  3  2  0  0  0  0
  2  4  1  0  0  0  0
  4  5  1  0  0  0  0
  4  6  1  0  0  0  0
  4 10  1  0  0  0  0
  5  7  1  0  0  0  0
  5  8  1  0  0  0  0
  5  9  1  0  0  0  0
 10 11  1  0  0  0  0
 11 12  1  0  0  0  0
 11 14  1  0  0  0  0
 11 15  1  0  0  0  0
 12 13  1  0  0  0  0
 12 16  1  0  0  0  0
 12 20  1  0  0  0  0
 13 17  1  0  0  0  0
 13 18  1  0  0  0  0
 13 19  1  0  0  0  0
 20 21  1  0  0  0  0
 21 22  1  0  0  0  0
 21 24  1  0  0  0  0
 21 25  1  0  0  0  0
 22 23  1  0  0  0  0
 22 26  1  0  0  0  0
 22 27  1  0  0  0  0
 23 28  1  0  0  0  0
 23 29  1  0  0  0  0
 23 30  1  0  0  0  0
M  END
>  <INPUT>
DTXSID2044630

>  <FOUND_BY>
DSSTox_Substance_Id

>  <DTXSID>
DTXSID2044630

>  <PREFERRED_NAME>
Hexafluoropropene oxide trimer

>  <CASRN>
2641-34-1

>  <INCHIKEY>
YSIGVPOSKQLNTO-UHFFFAOYNA-N

>  <IUPAC_NAME>
2,3,3,3-Tetrafluoro-2-[1,1,2,3,3,3-hexafluoro-2-(heptafluoropropoxy)propoxy]propanoyl fluoride

>  <SMILES>
FC(=O)C(F)(OC(F)(F)C(F)(OC(F)(F)C(F)(F)C(F)(F)F)C(F)(F)F)C(F)(F)F

>  <INCHI_STRING>
InChI=1/C9F18O3/c10-1(28)2(11,5(15,16)17)29-9(26,27)4(14,7(21,22)23)30-8(24,25)3(12,13)6(18,19)20


>  <MOLECULAR_FORMULA>
C9F18O3

>  <AVERAGE_MASS>
498.067

>  <MONOISOTOPIC_MASS>
497.956000794

>  <MOL_FILE>
MOL_FILE

$$$$

  -INDIGO-02112615072D

 11 10  0  0  0  0  0  0  0  0999 V2000
    2.5549   -3.2265    0.0000 C   0  0  0  0  0  0  0  0  0  0  0  0
    2.5549   -1.6865    0.0000 C   0  0  0  0  0  0  0  0  0  0  0  0
    2.5549   -0.1465    0.0000 C   0  0  0  0  0  0  0  0  0  0  0  0
    4.0949   -1.6865    0.0000 O   0  0  0  0  0  0  0  0  0  0  0  0
    2.5549   -4.7665    0.0000 F   0  0  0  0  0  0  0  0  0  0  0  0
    4.0949   -3.2265    0.0000 F   0  0  0  0  0  0  0  0  0  0  0  0
    1.0149   -3.2265    0.0000 F   0  0  0  0  0  0  0  0  0  0  0  0
    2.5549    1.3935    0.0000 F   0  0  0  0  0  0  0  0  0  0  0  0
    4.0949   -0.1465    0.0000 F   0  0  0  0  0  0  0  0  0  0  0  0
    1.0149   -0.1465    0.0000 F   0  0  0  0  0  0  0  0  0  0  0  0
    1.0149   -1.6865    0.0000 C   0  0  0  0  0  0  0  0  0  0  0  0
  1  2  1  0  0  0  0
  1  5  1  0  0  0  0
  1  6  1  0  0  0  0
  1  7  1  0  0  0  0
  2  3  1  0  0  0  0
  2  4  1  0  0  0  0
  2 11  1  0  0  0  0
  3  8  1  0  0  0  0
  3  9  1  0  0  0  0
  3 10  1  0  0  0  0
M  END
>  <INPUT>
DTXSID40883576

>  <FOUND_BY>
DSSTox_Substance_Id

>  <DTXSID>
DTXSID40883576

>  <PREFERRED_NAME>
Hexafluoro-2-methyl-2-propanol

>  <CASRN>
1515-14-6

>  <INCHIKEY>
FQDXJYBXPOMIBX-UHFFFAOYSA-N

>  <IUPAC_NAME>
1,1,1,3,3,3-Hexafluoro-2-methylpropan-2-ol

>  <SMILES>
CC(O)(C(F)(F)F)C(F)(F)F

>  <INCHI_STRING>
InChI=1S/C4H4F6O/c1-2(11,3(5,6)7)4(8,9)10/h11H,1H3


>  <MOLECULAR_FORMULA>
C4H4F6O

>  <AVERAGE_MASS>
182.065

>  <MONOISOTOPIC_MASS>
182.016633727

>  <MOL_FILE>
MOL_FILE

$$$$

  -INDIGO-02112615072D

 23 22  0  0  0  0  0  0  0  0999 V2000
    3.0008    0.1549    0.0000 C   0  0  0  0  0  0  0  0  0  0  0  0
    1.5468    0.6624    0.0000 O   0  0  0  0  0  0  0  0  0  0  0  0
    3.0008   -1.5204    0.0000 C   0  0  0  0  0  0  0  0  0  0  0  0
    3.8816    1.6015    0.0000 C   0  0  0  0  0  0  0  0  0  0  0  0
    4.5678   -0.2455    0.0000 F   0  0  0  0  0  0  0  0  0  0  0  0
    0.2821    1.5550    0.0000 C   0  0  0  0  0  0  0  0  0  0  0  0
    2.7689   -3.1476    0.0000 F   0  0  0  0  0  0  0  0  0  0  0  0
    1.4306   -1.8627    0.0000 F   0  0  0  0  0  0  0  0  0  0  0  0
    4.4511   -2.2924    0.0000 F   0  0  0  0  0  0  0  0  0  0  0  0
    4.4852    3.1476    0.0000 F   0  0  0  0  0  0  0  0  0  0  0  0
    2.8163    2.7355    0.0000 F   0  0  0  0  0  0  0  0  0  0  0  0
    5.5296    1.5481    0.0000 F   0  0  0  0  0  0  0  0  0  0  0  0
   -1.2337    0.7644    0.0000 C   0  0  0  0  0  0  0  0  0  0  0  0
   -0.4441    3.0324    0.0000 F   0  0  0  0  0  0  0  0  0  0  0  0
    0.8872    3.0693    0.0000 F   0  0  0  0  0  0  0  0  0  0  0  0
   -2.6280   -0.2040    0.0000 C   0  0  0  0  0  0  0  0  0  0  0  0
   -2.1578    2.0850    0.0000 F   0  0  0  0  0  0  0  0  0  0  0  0
   -0.3459   -0.5313    0.0000 F   0  0  0  0  0  0  0  0  0  0  0  0
   -4.0250   -1.0698    0.0000 C   0  0  0  0  0  0  0  0  0  0  0  0
   -3.7956    0.9259    0.0000 F   0  0  0  0  0  0  0  0  0  0  0  0
   -2.0415   -1.7160    0.0000 F   0  0  0  0  0  0  0  0  0  0  0  0
   -5.5296   -0.4913    0.0000 O   0  0  0  0  0  0  0  0  0  0  0  0
   -4.1337   -2.6784    0.0000 O   0  0  0  0  0  0  0  0  0  0  0  0
  1  2  1  0  0  0  0
  1  3  1  0  0  0  0
  1  4  1  0  0  0  0
  1  5  1  0  0  0  0
  2  6  1  0  0  0  0
  3  7  1  0  0  0  0
  3  8  1  0  0  0  0
  3  9  1  0  0  0  0
  4 10  1  0  0  0  0
  4 11  1  0  0  0  0
  4 12  1  0  0  0  0
  6 13  1  0  0  0  0
  6 14  1  0  0  0  0
  6 15  1  0  0  0  0
 13 16  1  0  0  0  0
 13 17  1  0  0  0  0
 13 18  1  0  0  0  0
 16 19  1  0  0  0  0
 16 20  1  0  0  0  0
 16 21  1  0  0  0  0
 19 22  1  0  0  0  0
 19 23  2  0  0  0  0
M  END
>  <INPUT>
DTXSID60663110

>  <FOUND_BY>
DSSTox_Substance_Id

>  <DTXSID>
DTXSID60663110

>  <PREFERRED_NAME>
Perfluoro-4-isopropoxybutanoic acid

>  <CASRN>
801212-59-9

>  <INCHIKEY>
HFUCGDPRBKRBFR-UHFFFAOYSA-N

>  <IUPAC_NAME>
2,2,3,3,4,4-Hexafluoro-4-[(1,1,1,2,3,3,3-heptafluoropropan-2-yl)oxy]butanoic acid

>  <SMILES>
OC(=O)C(F)(F)C(F)(F)C(F)(F)OC(F)(C(F)(F)F)C(F)(F)F

>  <INCHI_STRING>
InChI=1S/C7HF13O3/c8-2(9,1(21)22)3(10,11)7(19,20)23-4(12,5(13,14)15)6(16,17)18/h(H,21,22)

>  <MOLECULAR_FORMULA>
C7HF13O3

>  <AVERAGE_MASS>
380.061

>  <MONOISOTOPIC_MASS>
379.971810011

>  <MOL_FILE>
MOL_FILE

$$$$

  -INDIGO-02112615072D

 27 26  0  0  0  0  0  0  0  0999 V2000
    5.7749   -1.4368    0.0000 C   0  0  0  0  0  0  0  0  0  0  0  0
    7.3149   -1.4368    0.0000 C   0  0  0  0  0  0  0  0  0  0  0  0
    5.0049   -2.7705    0.0000 O   0  0  0  0  0  0  0  0  0  0  0  0
    8.0849   -2.7705    0.0000 C   0  0  0  0  0  0  0  0  0  0  0  0
    5.0049   -0.1030    0.0000 O   0  0  0  0  0  0  0  0  0  0  0  0
    8.0849   -0.1030    0.0000 C   0  0  0  0  0  0  0  0  0  0  0  0
    3.4649   -0.1030    0.0000 C   0  0  0  0  0  0  0  0  0  0  0  0
    2.6949    1.2305    0.0000 C   0  0  0  0  0  0  0  0  0  0  0  0
    1.1549    1.2305    0.0000 C   0  0  0  0  0  0  0  0  0  0  0  0
   -0.3851    1.2305    0.0000 C   0  0  0  0  0  0  0  0  0  0  0  0
   -1.9251    1.2305    0.0000 C   0  0  0  0  0  0  0  0  0  0  0  0
   -3.4651    1.2305    0.0000 C   0  0  0  0  0  0  0  0  0  0  0  0
   -5.0049    1.2305    0.0000 C   0  0  0  0  0  0  0  0  0  0  0  0
   -6.5449    1.2305    0.0000 C   0  0  0  0  0  0  0  0  0  0  0  0
    1.1549    2.7705    0.0000 F   0  0  0  0  0  0  0  0  0  0  0  0
    1.1549   -0.3095    0.0000 F   0  0  0  0  0  0  0  0  0  0  0  0
   -0.3851    2.7705    0.0000 F   0  0  0  0  0  0  0  0  0  0  0  0
   -0.3851   -0.3095    0.0000 F   0  0  0  0  0  0  0  0  0  0  0  0
   -1.9251    2.7705    0.0000 F   0  0  0  0  0  0  0  0  0  0  0  0
   -1.9251   -0.3095    0.0000 F   0  0  0  0  0  0  0  0  0  0  0  0
   -3.4651    2.7705    0.0000 F   0  0  0  0  0  0  0  0  0  0  0  0
   -3.4651   -0.3095    0.0000 F   0  0  0  0  0  0  0  0  0  0  0  0
   -5.0049    2.7705    0.0000 F   0  0  0  0  0  0  0  0  0  0  0  0
   -5.0049   -0.3095    0.0000 F   0  0  0  0  0  0  0  0  0  0  0  0
   -8.0849    1.2305    0.0000 F   0  0  0  0  0  0  0  0  0  0  0  0
   -6.5449    2.7705    0.0000 F   0  0  0  0  0  0  0  0  0  0  0  0
   -6.5449   -0.3095    0.0000 F   0  0  0  0  0  0  0  0  0  0  0  0
  1  2  1  0  0  0  0
  1  3  2  0  0  0  0
  1  5  1  0  0  0  0
  2  4  2  0  0  0  0
  2  6  1  0  0  0  0
  5  7  1  0  0  0  0
  7  8  1  0  0  0  0
  8  9  1  0  0  0  0
  9 10  1  0  0  0  0
  9 15  1  0  0  0  0
  9 16  1  0  0  0  0
 10 11  1  0  0  0  0
 10 17  1  0  0  0  0
 10 18  1  0  0  0  0
 11 12  1  0  0  0  0
 11 19  1  0  0  0  0
 11 20  1  0  0  0  0
 12 13  1  0  0  0  0
 12 21  1  0  0  0  0
 12 22  1  0  0  0  0
 13 14  1  0  0  0  0
 13 23  1  0  0  0  0
 13 24  1  0  0  0  0
 14 25  1  0  0  0  0
 14 26  1  0  0  0  0
 14 27  1  0  0  0  0
M  END
>  <INPUT>
DTXSID3047558

>  <FOUND_BY>
DSSTox_Substance_Id

>  <DTXSID>
DTXSID3047558

>  <PREFERRED_NAME>
2-(Perfluorohexyl)ethyl methacrylate

>  <CASRN>
2144-53-8

>  <INCHIKEY>
CDXFIRXEAJABAZ-UHFFFAOYSA-N

>  <IUPAC_NAME>
3,3,4,4,5,5,6,6,7,7,8,8,8-Tridecafluorooctyl 2-methylprop-2-enoate

>  <SMILES>
CC(=C)C(=O)OCCC(F)(F)C(F)(F)C(F)(F)C(F)(F)C(F)(F)C(F)(F)F

>  <INCHI_STRING>
InChI=1S/C12H9F13O2/c1-5(2)6(26)27-4-3-7(13,14)8(15,16)9(17,18)10(19,20)11(21,22)12(23,24)25/h1,3-4H2,2H3

>  <MOLECULAR_FORMULA>
C12H9F13O2

>  <AVERAGE_MASS>
432.181

>  <MONOISOTOPIC_MASS>
432.039495649

>  <MOL_FILE>
MOL_FILE

$$$$

  -INDIGO-02112615072D

 29 28  0  0  0  0  0  0  0  0999 V2000
   12.4729    0.9486    0.0000 F   0  0  0  0  0  0  0  0  0  0  0  0
   14.0129   -1.7186    0.0000 F   0  0  0  0  0  0  0  0  0  0  0  0
   11.1391    0.1786    0.0000 F   0  0  0  0  0  0  0  0  0  0  0  0
   12.6793   -2.4886    0.0000 F   0  0  0  0  0  0  0  0  0  0  0  0
   13.8066    1.7186    0.0000 F   0  0  0  0  0  0  0  0  0  0  0  0
   15.3466   -0.9486    0.0000 F   0  0  0  0  0  0  0  0  0  0  0  0
    9.8056   -0.5914    0.0000 F   0  0  0  0  0  0  0  0  0  0  0  0
   11.3456   -3.2586    0.0000 F   0  0  0  0  0  0  0  0  0  0  0  0
   16.6803   -0.1786    0.0000 F   0  0  0  0  0  0  0  0  0  0  0  0
   15.1403    2.4886    0.0000 F   0  0  0  0  0  0  0  0  0  0  0  0
    8.4717   -1.3614    0.0000 F   0  0  0  0  0  0  0  0  0  0  0  0
   10.0117   -4.0286    0.0000 F   0  0  0  0  0  0  0  0  0  0  0  0
   18.0141    0.5914    0.0000 F   0  0  0  0  0  0  0  0  0  0  0  0
   16.4741    3.2586    0.0000 F   0  0  0  0  0  0  0  0  0  0  0  0
   19.9114    3.4651    0.0000 F   0  0  0  0  0  0  0  0  0  0  0  0
   19.3478    1.3614    0.0000 F   0  0  0  0  0  0  0  0  0  0  0  0
   17.8076    4.0286    0.0000 F   0  0  0  0  0  0  0  0  0  0  0  0
    3.9069   -2.6951    0.0000 O   0  0  0  0  0  0  0  0  0  0  0  0
   13.2429   -0.3851    0.0000 C   0  0  0  0  0  0  0  0  0  0  0  0
   11.9091   -1.1551    0.0000 C   0  0  0  0  0  0  0  0  0  0  0  0
   14.5766    0.3851    0.0000 C   0  0  0  0  0  0  0  0  0  0  0  0
   10.5756   -1.9251    0.0000 C   0  0  0  0  0  0  0  0  0  0  0  0
    9.2417   -2.6951    0.0000 C   0  0  0  0  0  0  0  0  0  0  0  0
   15.9103    1.1551    0.0000 C   0  0  0  0  0  0  0  0  0  0  0  0
    7.9081   -3.4651    0.0000 C   0  0  0  0  0  0  0  0  0  0  0  0
   17.2441    1.9251    0.0000 C   0  0  0  0  0  0  0  0  0  0  0  0
    6.5744   -2.6951    0.0000 C   0  0  0  0  0  0  0  0  0  0  0  0
   18.5778    2.6951    0.0000 C   0  0  0  0  0  0  0  0  0  0  0  0
    5.2407   -3.4651    0.0000 C   0  0  0  0  0  0  0  0  0  0  0  0
  1 19  1  0  0  0  0
  2 19  1  0  0  0  0
  3 20  1  0  0  0  0
  4 20  1  0  0  0  0
  5 21  1  0  0  0  0
  6 21  1  0  0  0  0
  7 22  1  0  0  0  0
  8 22  1  0  0  0  0
  9 24  1  0  0  0  0
 10 24  1  0  0  0  0
 11 23  1  0  0  0  0
 12 23  1  0  0  0  0
 13 26  1  0  0  0  0
 14 26  1  0  0  0  0
 15 28  1  0  0  0  0
 16 28  1  0  0  0  0
 17 28  1  0  0  0  0
 18 29  1  0  0  0  0
 19 20  1  0  0  0  0
 19 21  1  0  0  0  0
 20 22  1  0  0  0  0
 21 24  1  0  0  0  0
 22 23  1  0  0  0  0
 23 25  1  0  0  0  0
 24 26  1  0  0  0  0
 25 27  1  0  0  0  0
 26 28  1  0  0  0  0
 27 29  1  0  0  0  0
M  END
>  <INPUT>
DTXSID10379991

>  <FOUND_BY>
DSSTox_Substance_Id

>  <DTXSID>
DTXSID10379991

>  <PREFERRED_NAME>
3-(Perfluorooctyl)propanol

>  <CASRN>
1651-41-8

>  <INCHIKEY>
FQTWAKFTSLUFFS-UHFFFAOYSA-N

>  <IUPAC_NAME>
4,4,5,5,6,6,7,7,8,8,9,9,10,10,11,11,11-Heptadecafluoroundecan-1-ol

>  <SMILES>
OCCCC(F)(F)C(F)(F)C(F)(F)C(F)(F)C(F)(F)C(F)(F)C(F)(F)C(F)(F)F

>  <INCHI_STRING>
InChI=1S/C11H7F17O/c12-4(13,2-1-3-29)5(14,15)6(16,17)7(18,19)8(20,21)9(22,23)10(24,25)11(26,27)28/h29H,1-3H2

>  <MOLECULAR_FORMULA>
C11H7F17O

>  <AVERAGE_MASS>
478.149

>  <MONOISOTOPIC_MASS>
478.022543616

>  <MOL_FILE>
MOL_FILE

$$$$

  -INDIGO-02112615072D

 15 14  0  0  0  0  0  0  0  0999 V2000
    6.3112    1.3337    0.0000 F   0  0  0  0  0  0  0  0  0  0  0  0
    7.8512   -1.3337    0.0000 F   0  0  0  0  0  0  0  0  0  0  0  0
    7.6449    2.1037    0.0000 F   0  0  0  0  0  0  0  0  0  0  0  0
    9.1849   -0.5637    0.0000 F   0  0  0  0  0  0  0  0  0  0  0  0
    4.9775    0.5637    0.0000 F   0  0  0  0  0  0  0  0  0  0  0  0
    6.5175   -2.1037    0.0000 F   0  0  0  0  0  0  0  0  0  0  0  0
   11.0824    0.7700    0.0000 F   0  0  0  0  0  0  0  0  0  0  0  0
    9.7485    3.0800    0.0000 F   0  0  0  0  0  0  0  0  0  0  0  0
    4.4137   -3.0800    0.0000 O   0  0  0  0  0  0  0  0  0  0  0  0
    7.0812    0.0000    0.0000 C   0  0  0  0  0  0  0  0  0  0  0  0
    8.4149    0.7700    0.0000 C   0  0  0  0  0  0  0  0  0  0  0  0
    5.7475   -0.7700    0.0000 C   0  0  0  0  0  0  0  0  0  0  0  0
    9.7485    1.5400    0.0000 C   0  0  0  0  0  0  0  0  0  0  0  0
    4.4137   -1.5400    0.0000 C   0  0  0  0  0  0  0  0  0  0  0  0
    3.0800   -0.7700    0.0000 C   0  0  0  0  0  0  0  0  0  0  0  0
  1 10  1  0  0  0  0
  2 10  1  0  0  0  0
  3 11  1  0  0  0  0
  4 11  1  0  0  0  0
  5 12  1  0  0  0  0
  6 12  1  0  0  0  0
  7 13  1  0  0  0  0
  8 13  1  0  0  0  0
  9 14  2  0  0  0  0
 10 11  1  0  0  0  0
 10 12  1  0  0  0  0
 11 13  1  0  0  0  0
 12 14  1  0  0  0  0
 14 15  1  0  0  0  0
M  END
>  <INPUT>
DTXSID10547335

>  <FOUND_BY>
DSSTox_Substance_Id

>  <DTXSID>
DTXSID10547335

>  <PREFERRED_NAME>
Methyl 4H-perfluorobutyl ketone

>  <CASRN>
93449-49-1

>  <INCHIKEY>
ZPBONMADXBQFDC-UHFFFAOYSA-N

>  <IUPAC_NAME>
3,3,4,4,5,5,6,6-Octafluorohexan-2-one

>  <SMILES>
CC(=O)C(F)(F)C(F)(F)C(F)(F)C(F)F

>  <INCHI_STRING>
InChI=1S/C6H4F8O/c1-2(15)4(9,10)6(13,14)5(11,12)3(7)8/h3H,1H3

>  <MOLECULAR_FORMULA>
C6H4F8O

>  <AVERAGE_MASS>
244.084

>  <MONOISOTOPIC_MASS>
244.013440053

>  <MOL_FILE>
MOL_FILE

$$$$

  -INDIGO-02112615072D

 14 13  0  0  0  0  0  0  0  0999 V2000
    6.7809   -3.1125    0.0000 F   0  0  0  0  0  0  0  0  0  0  0  0
    3.3432   -3.3187    0.0000 F   0  0  0  0  0  0  0  0  0  0  0  0
    3.9069   -1.2150    0.0000 F   0  0  0  0  0  0  0  0  0  0  0  0
    5.4469   -3.8825    0.0000 F   0  0  0  0  0  0  0  0  0  0  0  0
    8.6781   -0.2387    0.0000 F   0  0  0  0  0  0  0  0  0  0  0  0
    7.3444    0.5313    0.0000 F   0  0  0  0  0  0  0  0  0  0  0  0
    8.1144   -2.3425    0.0000 F   0  0  0  0  0  0  0  0  0  0  0  0
    3.9069    3.4050    0.0000 O   0  0  0  0  0  0  0  0  0  0  0  0
    6.0107   -1.7787    0.0000 C   0  0  0  0  0  0  0  0  0  0  0  0
    5.2407   -0.4450    0.0000 C   0  0  0  0  0  0  0  0  0  0  0  0
    5.2407    1.0950    0.0000 C   0  0  0  0  0  0  0  0  0  0  0  0
    7.3444   -1.0087    0.0000 C   0  0  0  0  0  0  0  0  0  0  0  0
    4.6769   -2.5487    0.0000 C   0  0  0  0  0  0  0  0  0  0  0  0
    3.9069    1.8650    0.0000 C   0  0  0  0  0  0  0  0  0  0  0  0
  1  9  1  0  0  0  0
  2 13  1  0  0  0  0
  3 13  1  0  0  0  0
  4 13  1  0  0  0  0
  5 12  1  0  0  0  0
  6 12  1  0  0  0  0
  7 12  1  0  0  0  0
  8 14  1  0  0  0  0
  9 10  1  0  0  0  0
  9 12  1  0  0  0  0
  9 13  1  0  0  0  0
 10 11  1  0  0  0  0
 11 14  1  0  0  0  0
M  END
>  <INPUT>
DTXSID40337443

>  <FOUND_BY>
DSSTox_Substance_Id

>  <DTXSID>
DTXSID40337443

>  <PREFERRED_NAME>
3-(Perfluoroisopropyl)propanol

>  <CASRN>
29819-73-6

>  <INCHIKEY>
NMPABPRKIBGSGW-UHFFFAOYSA-N

>  <IUPAC_NAME>
4,5,5,5-Tetrafluoro-4-(trifluoromethyl)pentan-1-ol

>  <SMILES>
OCCCC(F)(C(F)(F)F)C(F)(F)F

>  <INCHI_STRING>
InChI=1S/C6H7F7O/c7-4(2-1-3-14,5(8,9)10)6(11,12)13/h14H,1-3H2

>  <MOLECULAR_FORMULA>
C6H7F7O

>  <AVERAGE_MASS>
228.11

>  <MONOISOTOPIC_MASS>
228.038511986

>  <MOL_FILE>
MOL_FILE

$$$$

  -INDIGO-02112615072D

 25 24  0  0  0  0  0  0  0  0999 V2000
    6.7732    1.6955    0.0000 F   0  0  0  0  0  0  0  0  0  0  0  0
    7.8107   -1.1551    0.0000 F   0  0  0  0  0  0  0  0  0  0  0  0
    6.4770   -1.9251    0.0000 F   0  0  0  0  0  0  0  0  0  0  0  0
    9.1444   -0.3851    0.0000 F   0  0  0  0  0  0  0  0  0  0  0  0
    7.6044    2.2826    0.0000 F   0  0  0  0  0  0  0  0  0  0  0  0
    4.1670   -3.2586    0.0000 F   0  0  0  0  0  0  0  0  0  0  0  0
    3.6032   -1.1551    0.0000 F   0  0  0  0  0  0  0  0  0  0  0  0
    5.7071   -3.2586    0.0000 F   0  0  0  0  0  0  0  0  0  0  0  0
    3.3475    1.3884    0.0000 F   0  0  0  0  0  0  0  0  0  0  0  0
    3.0800   -0.1281    0.0000 F   0  0  0  0  0  0  0  0  0  0  0  0
    5.5171    1.5785    0.0000 F   0  0  0  0  0  0  0  0  0  0  0  0
   11.0417   -0.5914    0.0000 O   0  0  0  0  0  0  0  0  0  0  0  0
   13.7092    0.9486    0.0000 O   0  0  0  0  0  0  0  0  0  0  0  0
   15.0429    3.2586    0.0000 O   0  0  0  0  0  0  0  0  0  0  0  0
    7.0407    0.1786    0.0000 C   0  0  0  0  0  0  0  0  0  0  0  0
    5.7070   -0.5914    0.0000 C   0  0  0  0  0  0  0  0  0  0  0  0
    8.3744    0.9486    0.0000 C   0  0  0  0  0  0  0  0  0  0  0  0
    9.7080    1.7186    0.0000 C   0  0  0  0  0  0  0  0  0  0  0  0
   11.0417    0.9486    0.0000 C   0  0  0  0  0  0  0  0  0  0  0  0
    4.9370   -1.9251    0.0000 C   0  0  0  0  0  0  0  0  0  0  0  0
    4.5272    0.3985    0.0000 C   0  0  0  0  0  0  0  0  0  0  0  0
   12.3756    1.7186    0.0000 C   0  0  0  0  0  0  0  0  0  0  0  0
   15.0429    1.7186    0.0000 C   0  0  0  0  0  0  0  0  0  0  0  0
   16.3766    0.9486    0.0000 C   0  0  0  0  0  0  0  0  0  0  0  0
   17.7104    1.7186    0.0000 C   0  0  0  0  0  0  0  0  0  0  0  0
  1 15  1  0  0  0  0
  2 15  1  0  0  0  0
  3 16  1  0  0  0  0
  4 17  1  0  0  0  0
  5 17  1  0  0  0  0
  6 20  1  0  0  0  0
  7 20  1  0  0  0  0
  8 20  1  0  0  0  0
  9 21  1  0  0  0  0
 10 21  1  0  0  0  0
 11 21  1  0  0  0  0
 12 19  1  0  0  0  0
 13 22  1  0  0  0  0
 13 23  1  0  0  0  0
 14 23  2  0  0  0  0
 15 16  1  0  0  0  0
 15 17  1  0  0  0  0
 16 20  1  0  0  0  0
 16 21  1  0  0  0  0
 17 18  1  0  0  0  0
 18 19  1  0  0  0  0
 19 22  1  0  0  0  0
 23 24  1  0  0  0  0
 24 25  2  0  0  0  0
M  END
>  <INPUT>
DTXSID60379880

>  <FOUND_BY>
DSSTox_Substance_Id

>  <DTXSID>
DTXSID60379880

>  <PREFERRED_NAME>
(Perfluoro-3-methylbutyl)-2-hydroxypropyl acrylate

>  <CASRN>
16083-76-4

>  <INCHIKEY>
UMWCHHTXFDYJDZ-UHFFFAOYNA-N

>  <IUPAC_NAME>
4,4,5,5,6,7,7,7-Octafluoro-2-hydroxy-6-(trifluoromethyl)heptyl prop-2-enoate

>  <SMILES>
OC(COC(=O)C=C)CC(F)(F)C(F)(F)C(F)(C(F)(F)F)C(F)(F)F

>  <INCHI_STRING>
InChI=1S/C11H9F11O3/c1-2-6(24)25-4-5(23)3-7(12,13)9(15,16)8(14,10(17,18)19)11(20,21)22/h2,5,23H,1,3-4H2

>  <MOLECULAR_FORMULA>
C11H9F11O3

>  <AVERAGE_MASS>
398.172

>  <MONOISOTOPIC_MASS>
398.037603943

>  <MOL_FILE>
MOL_FILE

$$$$

  -INDIGO-02112615072D

 15 14  0  0  0  0  0  0  0  0999 V2000
    6.5175   -1.7186    0.0000 F   0  0  0  0  0  0  0  0  0  0  0  0
    6.3112    1.7186    0.0000 F   0  0  0  0  0  0  0  0  0  0  0  0
    7.8512   -0.9486    0.0000 F   0  0  0  0  0  0  0  0  0  0  0  0
    3.0800   -1.9251    0.0000 F   0  0  0  0  0  0  0  0  0  0  0  0
    3.0800   -0.3851    0.0000 F   0  0  0  0  0  0  0  0  0  0  0  0
    5.1837   -2.4886    0.0000 F   0  0  0  0  0  0  0  0  0  0  0  0
    9.7485    1.9251    0.0000 F   0  0  0  0  0  0  0  0  0  0  0  0
    9.1849   -0.1786    0.0000 F   0  0  0  0  0  0  0  0  0  0  0  0
    7.6449    2.4886    0.0000 F   0  0  0  0  0  0  0  0  0  0  0  0
    5.7475   -0.3851    0.0000 C   0  0  0  0  0  0  0  0  0  0  0  0
    7.0812    0.3851    0.0000 C   0  0  0  0  0  0  0  0  0  0  0  0
    4.4137   -1.1551    0.0000 C   0  0  0  0  0  0  0  0  0  0  0  0
    8.4149    1.1551    0.0000 C   0  0  0  0  0  0  0  0  0  0  0  0
    4.9775    0.9486    0.0000 C   0  0  0  0  0  0  0  0  0  0  0  0
    3.6439    1.7188    0.0000 C   0  0  0  0  0  0  0  0  0  0  0  0
  1 10  1  0  0  0  0
  2 11  1  0  0  0  0
  3 11  1  0  0  0  0
  4 12  1  0  0  0  0
  5 12  1  0  0  0  0
  6 12  1  0  0  0  0
  7 13  1  0  0  0  0
  8 13  1  0  0  0  0
  9 13  1  0  0  0  0
 10 11  1  0  0  0  0
 10 12  1  0  0  0  0
 10 14  1  0  0  0  0
 11 13  1  0  0  0  0
 14 15  2  0  0  0  0
M  END
>  <INPUT>
DTXSID50379359

>  <FOUND_BY>
DSSTox_Substance_Id

>  <DTXSID>
DTXSID50379359

>  <PREFERRED_NAME>
2-Vinylperfluorobutane

>  <CASRN>
239795-57-4

>  <INCHIKEY>
GBZVNPLYXNEEFL-UHFFFAOYNA-N

>  <IUPAC_NAME>
3,4,4,5,5,5-Hexafluoro-3-(trifluoromethyl)pent-1-ene

>  <SMILES>
FC(F)(F)C(F)(F)C(F)(C=C)C(F)(F)F

>  <INCHI_STRING>
InChI=1S/C6H3F9/c1-2-3(7,5(10,11)12)4(8,9)6(13,14)15/h2H,1H2

>  <MOLECULAR_FORMULA>
C6H3F9

>  <AVERAGE_MASS>
246.076

>  <MONOISOTOPIC_MASS>
246.009103564

>  <MOL_FILE>
MOL_FILE

$$$$

  -INDIGO-02112615072D

 15 14  0  0  0  0  0  0  0  0999 V2000
    6.3112    2.1037    0.0000 F   0  0  0  0  0  0  0  0  0  0  0  0
    7.8512   -0.5637    0.0000 F   0  0  0  0  0  0  0  0  0  0  0  0
    4.9775    1.3337    0.0000 F   0  0  0  0  0  0  0  0  0  0  0  0
    6.5175   -1.3337    0.0000 F   0  0  0  0  0  0  0  0  0  0  0  0
    3.0800   -1.5400    0.0000 F   0  0  0  0  0  0  0  0  0  0  0  0
    3.6437    0.5637    0.0000 F   0  0  0  0  0  0  0  0  0  0  0  0
    5.1837   -2.1037    0.0000 F   0  0  0  0  0  0  0  0  0  0  0  0
    9.7485   -0.7700    0.0000 O   0  0  0  0  0  0  0  0  0  0  0  0
   12.4161    0.7700    0.0000 O   0  0  0  0  0  0  0  0  0  0  0  0
    7.0812    0.7700    0.0000 C   0  0  0  0  0  0  0  0  0  0  0  0
    8.4149    1.5400    0.0000 C   0  0  0  0  0  0  0  0  0  0  0  0
    9.7485    0.7700    0.0000 C   0  0  0  0  0  0  0  0  0  0  0  0
    5.7475    0.0000    0.0000 C   0  0  0  0  0  0  0  0  0  0  0  0
   11.0824    1.5400    0.0000 C   0  0  0  0  0  0  0  0  0  0  0  0
    4.4137   -0.7700    0.0000 C   0  0  0  0  0  0  0  0  0  0  0  0
  1 10  1  0  0  0  0
  2 10  1  0  0  0  0
  3 13  1  0  0  0  0
  4 13  1  0  0  0  0
  5 15  1  0  0  0  0
  6 15  1  0  0  0  0
  7 15  1  0  0  0  0
  8 12  1  0  0  0  0
  9 14  1  0  0  0  0
 10 11  1  0  0  0  0
 10 13  1  0  0  0  0
 11 12  1  0  0  0  0
 12 14  1  0  0  0  0
 13 15  1  0  0  0  0
M  END
>  <INPUT>
DTXSID30382048

>  <FOUND_BY>
DSSTox_Substance_Id

>  <DTXSID>
DTXSID30382048

>  <PREFERRED_NAME>
3-(Perfluoro-1-propyl)-1,2-propanediol

>  <CASRN>
1992-91-2

>  <INCHIKEY>
GGHXTGYWFGCELG-UHFFFAOYNA-N

>  <IUPAC_NAME>
4,4,5,5,6,6,6-Heptafluorohexane-1,2-diol

>  <SMILES>
OCC(O)CC(F)(F)C(F)(F)C(F)(F)F

>  <INCHI_STRING>
InChI=1S/C6H7F7O2/c7-4(8,1-3(15)2-14)5(9,10)6(11,12)13/h3,14-15H,1-2H2

>  <MOLECULAR_FORMULA>
C6H7F7O2

>  <AVERAGE_MASS>
244.109

>  <MONOISOTOPIC_MASS>
244.033426606

>  <MOL_FILE>
MOL_FILE

$$$$

  -INDIGO-02112615072D

 25 24  0  0  0  0  0  0  0  0999 V2000
    7.6449    1.0233    0.0000 F   0  0  0  0  0  0  0  0  0  0  0  0
    9.1849   -1.6440    0.0000 F   0  0  0  0  0  0  0  0  0  0  0  0
    6.3112    0.2533    0.0000 F   0  0  0  0  0  0  0  0  0  0  0  0
    7.8512   -2.4140    0.0000 F   0  0  0  0  0  0  0  0  0  0  0  0
   10.5187   -0.8740    0.0000 F   0  0  0  0  0  0  0  0  0  0  0  0
    8.9785    1.7933    0.0000 F   0  0  0  0  0  0  0  0  0  0  0  0
    4.9775   -0.5167    0.0000 F   0  0  0  0  0  0  0  0  0  0  0  0
    6.5175   -3.1840    0.0000 F   0  0  0  0  0  0  0  0  0  0  0  0
   11.6461   -0.8740    0.0000 F   0  0  0  0  0  0  0  0  0  0  0  0
    3.0800   -3.3904    0.0000 F   0  0  0  0  0  0  0  0  0  0  0  0
    3.6437   -1.2867    0.0000 F   0  0  0  0  0  0  0  0  0  0  0  0
    5.1837   -3.9540    0.0000 F   0  0  0  0  0  0  0  0  0  0  0  0
   15.0834   -1.0804    0.0000 F   0  0  0  0  0  0  0  0  0  0  0  0
   14.5197    1.0233    0.0000 F   0  0  0  0  0  0  0  0  0  0  0  0
   12.9797   -1.6440    0.0000 F   0  0  0  0  0  0  0  0  0  0  0  0
   11.0824    1.2298    0.0000 O   0  0  0  0  0  0  0  0  0  0  0  0
   12.4161    3.1272    0.0000 O   0  0  0  0  0  0  0  0  0  0  0  0
    8.4149   -0.3102    0.0000 C   0  0  0  0  0  0  0  0  0  0  0  0
    7.0812   -1.0804    0.0000 C   0  0  0  0  0  0  0  0  0  0  0  0
    9.7485    0.4598    0.0000 C   0  0  0  0  0  0  0  0  0  0  0  0
    5.7475   -1.8504    0.0000 C   0  0  0  0  0  0  0  0  0  0  0  0
   12.4161    0.4598    0.0000 C   0  0  0  0  0  0  0  0  0  0  0  0
    4.4137   -2.6204    0.0000 C   0  0  0  0  0  0  0  0  0  0  0  0
   13.1861    1.7933    0.0000 C   0  0  0  0  0  0  0  0  0  0  0  0
   13.7497   -0.3102    0.0000 C   0  0  0  0  0  0  0  0  0  0  0  0
  1 18  1  0  0  0  0
  2 18  1  0  0  0  0
  3 19  1  0  0  0  0
  4 19  1  0  0  0  0
  5 20  1  0  0  0  0
  6 20  1  0  0  0  0
  7 21  1  0  0  0  0
  8 21  1  0  0  0  0
  9 22  1  0  0  0  0
 10 23  1  0  0  0  0
 11 23  1  0  0  0  0
 12 23  1  0  0  0  0
 13 25  1  0  0  0  0
 14 25  1  0  0  0  0
 15 25  1  0  0  0  0
 16 20  1  0  0  0  0
 16 22  1  0  0  0  0
 17 24  1  0  0  0  0
 18 19  1  0  0  0  0
 18 20  1  0  0  0  0
 19 21  1  0  0  0  0
 21 23  1  0  0  0  0
 22 24  1  0  0  0  0
 22 25  1  0  0  0  0
M  END
>  <INPUT>
DTXSID30382169

>  <FOUND_BY>
DSSTox_Substance_Id

>  <DTXSID>
DTXSID30382169

>  <PREFERRED_NAME>
2,3,3,3-Tetrafluoro-2-(perfluoropentoxy)propan-1-ol

>  <CASRN>
78693-85-3

>  <INCHIKEY>
XKYXNXAJMRFZSX-UHFFFAOYNA-N

>  <IUPAC_NAME>
2,3,3,3-Tetrafluoro-2-[(undecafluoropentyl)oxy]propan-1-ol

>  <SMILES>
OCC(F)(OC(F)(F)C(F)(F)C(F)(F)C(F)(F)C(F)(F)F)C(F)(F)F

>  <INCHI_STRING>
InChI=1S/C8H3F15O2/c9-2(1-24,6(16,17)18)25-8(22,23)5(14,15)3(10,11)4(12,13)7(19,20)21/h24H,1H2

>  <MOLECULAR_FORMULA>
C8H3F15O2

>  <AVERAGE_MASS>
416.086

>  <MONOISOTOPIC_MASS>
415.989351782

>  <MOL_FILE>
MOL_FILE

$$$$

  -INDIGO-02112615072D

 11 11  0  0  0  0  0  0  0  0999 V2000
    3.7703    1.6507    0.0000 O   0  0  0  0  0  0  0  0  0  0  0  0
    2.3057    1.1749    0.0000 C   0  0  0  0  0  0  0  0  0  0  0  0
    1.8299   -0.2899    0.0000 O   0  0  0  0  0  0  0  0  0  0  0  0
    0.2899   -0.2899    0.0000 C   0  0  0  0  0  0  0  0  0  0  0  0
   -0.6154   -1.5357    0.0000 O   0  0  0  0  0  0  0  0  0  0  0  0
   -0.1861    1.1749    0.0000 C   0  0  0  0  0  0  0  0  0  0  0  0
   -1.5930    0.5484    0.0000 F   0  0  0  0  0  0  0  0  0  0  0  0
   -0.9561    2.5084    0.0000 F   0  0  0  0  0  0  0  0  0  0  0  0
    1.0599    2.0800    0.0000 C   0  0  0  0  0  0  0  0  0  0  0  0
    0.3039    3.4216    0.0000 F   0  0  0  0  0  0  0  0  0  0  0  0
    1.8159    3.4216    0.0000 F   0  0  0  0  0  0  0  0  0  0  0  0
  1  2  2  0  0  0  0
  2  3  1  0  0  0  0
  3  4  1  0  0  0  0
  4  5  2  0  0  0  0
  4  6  1  0  0  0  0
  6  7  1  0  0  0  0
  6  8  1  0  0  0  0
  6  9  1  0  0  0  0
  2  9  1  0  0  0  0
  9 10  1  0  0  0  0
  9 11  1  0  0  0  0
M  END
>  <INPUT>
DTXSID6061022

>  <FOUND_BY>
DSSTox_Substance_Id

>  <DTXSID>
DTXSID6061022

>  <PREFERRED_NAME>
Perfluorosuccinic anhydride

>  <CASRN>
699-30-9

>  <INCHIKEY>
ZLVLNNCBGQYRAB-UHFFFAOYSA-N

>  <IUPAC_NAME>
3,3,4,4-Tetrafluorooxolane-2,5-dione

>  <SMILES>
FC1(F)C(=O)OC(=O)C1(F)F

>  <INCHI_STRING>
InChI=1S/C4F4O3/c5-3(6)1(9)11-2(10)4(3,7)8

>  <MOLECULAR_FORMULA>
C4F4O3

>  <AVERAGE_MASS>
172.035

>  <MONOISOTOPIC_MASS>
171.978356512

>  <MOL_FILE>
MOL_FILE

$$$$

  -INDIGO-02112615072D

 14 13  0  0  0  0  0  0  0  0999 V2000
    7.0806   -1.9249    0.0000 F   0  0  0  0  0  0  0  0  0  0  0  0
   11.0814   -1.1550    0.0000 F   0  0  0  0  0  0  0  0  0  0  0  0
   10.5177    0.9486    0.0000 F   0  0  0  0  0  0  0  0  0  0  0  0
    8.9777   -1.7185    0.0000 F   0  0  0  0  0  0  0  0  0  0  0  0
    3.0797   -1.1550    0.0000 F   0  0  0  0  0  0  0  0  0  0  0  0
    3.6434    0.9486    0.0000 F   0  0  0  0  0  0  0  0  0  0  0  0
    5.1833   -1.7185    0.0000 F   0  0  0  0  0  0  0  0  0  0  0  0
    8.4142    1.9249    0.0000 O   0  0  0  0  0  0  0  0  0  0  0  0
    5.7469    1.9249    0.0000 O   0  0  0  0  0  0  0  0  0  0  0  0
    7.0806   -0.3851    0.0000 C   0  0  0  0  0  0  0  0  0  0  0  0
    8.4142    0.3851    0.0000 C   0  0  0  0  0  0  0  0  0  0  0  0
    5.7469    0.3851    0.0000 C   0  0  0  0  0  0  0  0  0  0  0  0
    9.7476   -0.3851    0.0000 C   0  0  0  0  0  0  0  0  0  0  0  0
    4.4133   -0.3851    0.0000 C   0  0  0  0  0  0  0  0  0  0  0  0
  1 10  1  0  0  0  0
  2 13  1  0  0  0  0
  3 13  1  0  0  0  0
  4 13  1  0  0  0  0
  5 14  1  0  0  0  0
  6 14  1  0  0  0  0
  7 14  1  0  0  0  0
  8 11  2  0  0  0  0
  9 12  2  0  0  0  0
 10 11  1  0  0  0  0
 10 12  1  0  0  0  0
 11 13  1  0  0  0  0
 12 14  1  0  0  0  0
M  END
>  <INPUT>
DTXSID40379282

>  <FOUND_BY>
DSSTox_Substance_Id

>  <DTXSID>
DTXSID40379282

>  <PREFERRED_NAME>
3H-Perfluoropentane-2,4-dione

>  <CASRN>
77968-17-3

>  <INCHIKEY>
GRHYFDZMGZYXAP-UHFFFAOYSA-N

>  <IUPAC_NAME>
1,1,1,3,5,5,5-Heptafluoropentane-2,4-dione

>  <SMILES>
FC(C(=O)C(F)(F)F)C(=O)C(F)(F)F

>  <INCHI_STRING>
InChI=1S/C5HF7O2/c6-1(2(13)4(7,8)9)3(14)5(10,11)12/h1H

>  <MOLECULAR_FORMULA>
C5HF7O2

>  <AVERAGE_MASS>
226.05

>  <MONOISOTOPIC_MASS>
225.986476413

>  <MOL_FILE>
MOL_FILE

$$$$

  -INDIGO-02112615072D

 13 12  0  0  0  0  0  0  0  0999 V2000
    5.5928    1.2120    0.0000 F   0  0  0  0  0  0  0  0  0  0  0  0
    5.5927   -1.8681    0.0000 F   0  0  0  0  0  0  0  0  0  0  0  0
    7.1328    1.2119    0.0000 F   0  0  0  0  0  0  0  0  0  0  0  0
    7.1328   -1.8682    0.0000 F   0  0  0  0  0  0  0  0  0  0  0  0
    2.5126   -0.3280    0.0000 F   0  0  0  0  0  0  0  0  0  0  0  0
    4.0526    1.2118    0.0000 F   0  0  0  0  0  0  0  0  0  0  0  0
    4.0527   -1.8681    0.0000 F   0  0  0  0  0  0  0  0  0  0  0  0
    9.4427   -1.6618    0.0000 N   0  0  0  0  0  0  0  0  0  0  0  0
    9.4428    1.0055    0.0000 N   0  0  0  0  0  0  0  0  0  0  0  0
    5.5927   -0.3281    0.0000 C   0  0  0  0  0  0  0  0  0  0  0  0
    7.1328   -0.3281    0.0000 C   0  0  0  0  0  0  0  0  0  0  0  0
    4.0527   -0.3281    0.0000 C   0  0  0  0  0  0  0  0  0  0  0  0
    8.6728   -0.3282    0.0000 C   0  0  0  0  0  0  0  0  0  0  0  0
  1 10  1  0  0  0  0
  2 10  1  0  0  0  0
  3 11  1  0  0  0  0
  4 11  1  0  0  0  0
  5 12  1  0  0  0  0
  6 12  1  0  0  0  0
  7 12  1  0  0  0  0
  8 13  1  0  0  0  0
  9 13  2  0  0  0  0
 10 11  1  0  0  0  0
 10 12  1  0  0  0  0
 11 13  1  0  0  0  0
M  END
>  <INPUT>
DTXSID40290781

>  <FOUND_BY>
DSSTox_Substance_Id

>  <DTXSID>
DTXSID40290781

>  <PREFERRED_NAME>
Perfluorobutyrylamidine

>  <CASRN>
375-19-9

>  <INCHIKEY>
HYMJOTOLJAHZCH-UHFFFAOYSA-N

>  <IUPAC_NAME>
2,2,3,3,4,4,4-Heptafluorobutanimidamide

>  <SMILES>
NC(=N)C(F)(F)C(F)(F)C(F)(F)F

>  <INCHI_STRING>
InChI=1S/C4H3F7N2/c5-2(6,1(12)13)3(7,8)4(9,10)11/h(H3,12,13)


>  <MOLECULAR_FORMULA>
C4H3F7N2

>  <AVERAGE_MASS>
212.071

>  <MONOISOTOPIC_MASS>
212.018445246

>  <MOL_FILE>
MOL_FILE

$$$$

  -INDIGO-02112615072D

 16 15  0  0  0  0  0  0  0  0999 V2000
    4.2266   -1.3529    0.0000 O   0  0  0  0  0  0  0  0  0  0  0  0
    3.4622   -0.0160    0.0000 C   0  0  0  0  0  0  0  0  0  0  0  0
    4.2376    1.3145    0.0000 O   0  0  0  0  0  0  0  0  0  0  0  0
    1.9222   -0.0096    0.0000 C   0  0  0  0  0  0  0  0  0  0  0  0
    1.9286    1.5304    0.0000 F   0  0  0  0  0  0  0  0  0  0  0  0
    1.9159   -1.5495    0.0000 F   0  0  0  0  0  0  0  0  0  0  0  0
    0.3823   -0.0032    0.0000 C   0  0  0  0  0  0  0  0  0  0  0  0
    0.3886    1.5367    0.0000 F   0  0  0  0  0  0  0  0  0  0  0  0
    0.3759   -1.5431    0.0000 F   0  0  0  0  0  0  0  0  0  0  0  0
   -1.1577    0.0032    0.0000 C   0  0  0  0  0  0  0  0  0  0  0  0
   -1.1513    1.5431    0.0000 F   0  0  0  0  0  0  0  0  0  0  0  0
   -1.1641   -1.5367    0.0000 F   0  0  0  0  0  0  0  0  0  0  0  0
   -2.6977    0.0096    0.0000 C   0  0  0  0  0  0  0  0  0  0  0  0
   -4.2376    0.0160    0.0000 F   0  0  0  0  0  0  0  0  0  0  0  0
   -2.6913    1.5495    0.0000 F   0  0  0  0  0  0  0  0  0  0  0  0
   -2.7040   -1.5304    0.0000 F   0  0  0  0  0  0  0  0  0  0  0  0
  1  2  2  0  0  0  0
  2  3  1  0  0  0  0
  2  4  1  0  0  0  0
  4  5  1  0  0  0  0
  4  6  1  0  0  0  0
  4  7  1  0  0  0  0
  7  8  1  0  0  0  0
  7  9  1  0  0  0  0
  7 10  1  0  0  0  0
 10 11  1  0  0  0  0
 10 12  1  0  0  0  0
 10 13  1  0  0  0  0
 13 14  1  0  0  0  0
 13 15  1  0  0  0  0
 13 16  1  0  0  0  0
M  END
>  <INPUT>
DTXSID6062599

>  <FOUND_BY>
DSSTox_Substance_Id

>  <DTXSID>
DTXSID6062599

>  <PREFERRED_NAME>
Perfluoropentanoic acid

>  <CASRN>
2706-90-3

>  <INCHIKEY>
CXZGQIAOTKWCDB-UHFFFAOYSA-N

>  <IUPAC_NAME>
Nonafluoropentanoic acid

>  <SMILES>
OC(=O)C(F)(F)C(F)(F)C(F)(F)C(F)(F)F

>  <INCHI_STRING>
InChI=1S/C5HF9O2/c6-2(7,1(15)16)3(8,9)4(10,11)5(12,13)14/h(H,15,16)


>  <MOLECULAR_FORMULA>
C5HF9O2

>  <AVERAGE_MASS>
264.047

>  <MONOISOTOPIC_MASS>
263.983282739

>  <MOL_FILE>
MOL_FILE

$$$$

  -INDIGO-02112615072D

 21 21  0  0  0  0  0  0  0  0999 V2000
    1.3337    2.3100    0.0000 C   0  0  0  0  0  0  0  0  0  0  0  0
    2.6673    1.5400    0.0000 C   0  0  0  0  0  0  0  0  0  0  0  0
    2.6673    0.0000    0.0000 C   0  0  0  0  0  0  0  0  0  0  0  0
    1.3337   -0.7700    0.0000 C   0  0  0  0  0  0  0  0  0  0  0  0
    2.3236   -1.9497    0.0000 F   0  0  0  0  0  0  0  0  0  0  0  0
    0.3438   -1.9497    0.0000 F   0  0  0  0  0  0  0  0  0  0  0  0
    0.0000    0.0000    0.0000 C   0  0  0  0  0  0  0  0  0  0  0  0
    0.0000    1.5400    0.0000 C   0  0  0  0  0  0  0  0  0  0  0  0
   -1.5391    1.5938    0.0000 F   0  0  0  0  0  0  0  0  0  0  0  0
   -0.8161    2.8459    0.0000 F   0  0  0  0  0  0  0  0  0  0  0  0
   -0.8161   -1.3059    0.0000 F   0  0  0  0  0  0  0  0  0  0  0  0
   -1.5391   -0.0538    0.0000 F   0  0  0  0  0  0  0  0  0  0  0  0
    4.2063   -0.0538    0.0000 F   0  0  0  0  0  0  0  0  0  0  0  0
    3.4834   -1.3059    0.0000 F   0  0  0  0  0  0  0  0  0  0  0  0
    3.4834    2.8459    0.0000 F   0  0  0  0  0  0  0  0  0  0  0  0
    4.2063    1.5938    0.0000 F   0  0  0  0  0  0  0  0  0  0  0  0
    0.6108    3.6697    0.0000 C   0  0  0  0  0  0  0  0  0  0  0  0
   -0.1124    5.0295    0.0000 F   0  0  0  0  0  0  0  0  0  0  0  0
    1.9705    4.3926    0.0000 F   0  0  0  0  0  0  0  0  0  0  0  0
   -0.9059    3.4024    0.0000 F   0  0  0  0  0  0  0  0  0  0  0  0
    2.0567    3.6697    0.0000 F   0  0  0  0  0  0  0  0  0  0  0  0
  1  2  1  0  0  0  0
  2  3  1  0  0  0  0
  3  4  1  0  0  0  0
  4  5  1  0  0  0  0
  4  6  1  0  0  0  0
  4  7  1  0  0  0  0
  7  8  1  0  0  0  0
  1  8  1  0  0  0  0
  8  9  1  0  0  0  0
  8 10  1  0  0  0  0
  7 11  1  0  0  0  0
  7 12  1  0  0  0  0
  3 13  1  0  0  0  0
  3 14  1  0  0  0  0
  2 15  1  0  0  0  0
  2 16  1  0  0  0  0
  1 17  1  0  0  0  0
 17 18  1  0  0  0  0
 17 19  1  0  0  0  0
 17 20  1  0  0  0  0
  1 21  1  0  0  0  0
M  END
>  <INPUT>
DTXSID5059874

>  <FOUND_BY>
DSSTox_Substance_Id

>  <DTXSID>
DTXSID5059874

>  <PREFERRED_NAME>
Perfluoromethylcyclohexane

>  <CASRN>
355-02-2

>  <INCHIKEY>
QIROQPWSJUXOJC-UHFFFAOYSA-N

>  <IUPAC_NAME>
Undecafluoro(trifluoromethyl)cyclohexane

>  <SMILES>
FC(F)(F)C1(F)C(F)(F)C(F)(F)C(F)(F)C(F)(F)C1(F)F

>  <INCHI_STRING>
InChI=1S/C7F14/c8-1(7(19,20)21)2(9,10)4(13,14)6(17,18)5(15,16)3(1,11)12

>  <MOLECULAR_FORMULA>
C7F14

>  <AVERAGE_MASS>
350.055

>  <MONOISOTOPIC_MASS>
349.977644282

>  <MOL_FILE>
MOL_FILE

$$$$

  -INDIGO-02112615072D

 25 24  0  0  0  0  0  0  0  0999 V2000
   12.4729    0.9486    0.0000 F   0  0  0  0  0  0  0  0  0  0  0  0
   14.0129   -1.7186    0.0000 F   0  0  0  0  0  0  0  0  0  0  0  0
    9.8056   -1.7186    0.0000 F   0  0  0  0  0  0  0  0  0  0  0  0
   11.3456    0.9486    0.0000 F   0  0  0  0  0  0  0  0  0  0  0  0
   13.8066    1.7186    0.0000 F   0  0  0  0  0  0  0  0  0  0  0  0
   15.3466   -0.9486    0.0000 F   0  0  0  0  0  0  0  0  0  0  0  0
    8.4717   -0.9486    0.0000 F   0  0  0  0  0  0  0  0  0  0  0  0
   10.0117    1.7186    0.0000 F   0  0  0  0  0  0  0  0  0  0  0  0
   18.0141    1.7186    0.0000 F   0  0  0  0  0  0  0  0  0  0  0  0
   16.4741   -0.9486    0.0000 F   0  0  0  0  0  0  0  0  0  0  0  0
    5.8044    1.7186    0.0000 F   0  0  0  0  0  0  0  0  0  0  0  0
    7.3444   -0.9486    0.0000 F   0  0  0  0  0  0  0  0  0  0  0  0
   11.9091   -1.1551    0.0000 O   0  0  0  0  0  0  0  0  0  0  0  0
   15.9103    1.1551    0.0000 O   0  0  0  0  0  0  0  0  0  0  0  0
    7.9081    1.1551    0.0000 O   0  0  0  0  0  0  0  0  0  0  0  0
   19.9114    0.3851    0.0000 O   0  0  0  0  0  0  0  0  0  0  0  0
    3.9069    0.3851    0.0000 O   0  0  0  0  0  0  0  0  0  0  0  0
   13.2429   -0.3851    0.0000 C   0  0  0  0  0  0  0  0  0  0  0  0
   10.5756   -0.3851    0.0000 C   0  0  0  0  0  0  0  0  0  0  0  0
   14.5766    0.3851    0.0000 C   0  0  0  0  0  0  0  0  0  0  0  0
    9.2417    0.3851    0.0000 C   0  0  0  0  0  0  0  0  0  0  0  0
   17.2441    0.3851    0.0000 C   0  0  0  0  0  0  0  0  0  0  0  0
    6.5744    0.3851    0.0000 C   0  0  0  0  0  0  0  0  0  0  0  0
   18.5778   -0.3851    0.0000 C   0  0  0  0  0  0  0  0  0  0  0  0
    5.2407   -0.3851    0.0000 C   0  0  0  0  0  0  0  0  0  0  0  0
  1 18  1  0  0  0  0
  2 18  1  0  0  0  0
  3 19  1  0  0  0  0
  4 19  1  0  0  0  0
  5 20  1  0  0  0  0
  6 20  1  0  0  0  0
  7 21  1  0  0  0  0
  8 21  1  0  0  0  0
  9 22  1  0  0  0  0
 10 22  1  0  0  0  0
 11 23  1  0  0  0  0
 12 23  1  0  0  0  0
 13 18  1  0  0  0  0
 13 19  1  0  0  0  0
 14 20  1  0  0  0  0
 14 22  1  0  0  0  0
 15 21  1  0  0  0  0
 15 23  1  0  0  0  0
 16 24  1  0  0  0  0
 17 25  1  0  0  0  0
 18 20  1  0  0  0  0
 19 21  1  0  0  0  0
 22 24  1  0  0  0  0
 23 25  1  0  0  0  0
M  END
>  <INPUT>
DTXSID00380798

>  <FOUND_BY>
DSSTox_Substance_Id

>  <DTXSID>
DTXSID00380798

>  <PREFERRED_NAME>
1H,1H,11H,11H-Perfluorotetraethylene glycol

>  <CASRN>
330562-44-2

>  <INCHIKEY>
BFMDZOWJRVLYPB-UHFFFAOYSA-N

>  <IUPAC_NAME>
2,2'-{Oxybis[(1,1,2,2-tetrafluoroethane-2,1-diyl)oxy]}bis(2,2-difluoroethan-1-ol)

>  <SMILES>
OCC(F)(F)OC(F)(F)C(F)(F)OC(F)(F)C(F)(F)OC(F)(F)CO

>  <INCHI_STRING>
InChI=1S/C8H6F12O5/c9-3(10,1-21)23-5(13,14)7(17,18)25-8(19,20)6(15,16)24-4(11,12)2-22/h21-22H,1-2H2

>  <MOLECULAR_FORMULA>
C8H6F12O5

>  <AVERAGE_MASS>
410.112

>  <MONOISOTOPIC_MASS>
410.002361249

>  <MOL_FILE>
MOL_FILE

$$$$

  -INDIGO-02112615072D

 11 10  0  0  0  0  0  0  0  0999 V2000
    1.5400   -3.0800    0.0000 F   0  0  0  0  0  0  0  0  0  0  0  0
    1.5400   -1.5400    0.0000 C   0  0  0  0  0  0  0  0  0  0  0  0
    3.0800   -1.5400    0.0000 F   0  0  0  0  0  0  0  0  0  0  0  0
    0.0000   -1.5400    0.0000 F   0  0  0  0  0  0  0  0  0  0  0  0
    1.5400    0.0000    0.0000 C   0  0  0  0  0  0  0  0  0  0  0  0
    3.0800    0.0000    0.0000 F   0  0  0  0  0  0  0  0  0  0  0  0
    1.5400    1.5400    0.0000 C   0  0  0  0  0  0  0  0  0  0  0  0
    1.5400    3.0800    0.0000 F   0  0  0  0  0  0  0  0  0  0  0  0
    3.0800    1.5400    0.0000 F   0  0  0  0  0  0  0  0  0  0  0  0
    0.0000    1.5400    0.0000 F   0  0  0  0  0  0  0  0  0  0  0  0
    0.0000    0.0000    0.0000 I   0  0  0  0  0  0  0  0  0  0  0  0
  1  2  1  0  0  0  0
  2  3  1  0  0  0  0
  2  4  1  0  0  0  0
  2  5  1  0  0  0  0
  5  6  1  0  0  0  0
  5  7  1  0  0  0  0
  7  8  1  0  0  0  0
  7  9  1  0  0  0  0
  7 10  1  0  0  0  0
  5 11  1  0  0  0  0
M  END
>  <INPUT>
DTXSID5060982

>  <FOUND_BY>
DSSTox_Substance_Id

>  <DTXSID>
DTXSID5060982

>  <PREFERRED_NAME>
Heptafluoro-2-iodopropane

>  <CASRN>
677-69-0

>  <INCHIKEY>
BBZVTTKMXRPMHZ-UHFFFAOYSA-N

>  <IUPAC_NAME>
1,1,1,2,3,3,3-Heptafluoro-2-iodopropane

>  <SMILES>
FC(F)(F)C(F)(I)C(F)(F)F

>  <INCHI_STRING>
InChI=1S/C3F7I/c4-1(11,2(5,6)7)3(8,9)10

>  <MOLECULAR_FORMULA>
C3F7I

>  <AVERAGE_MASS>
295.926

>  <MONOISOTOPIC_MASS>
295.89329

>  <MOL_FILE>
MOL_FILE

$$$$

  -INDIGO-02112615072D

 13 12  0  0  0  0  0  0  0  0999 V2000
    4.9775    1.3337    0.0000 F   0  0  0  0  0  0  0  0  0  0  0  0
    6.5175   -1.3337    0.0000 F   0  0  0  0  0  0  0  0  0  0  0  0
    6.3112    2.1037    0.0000 F   0  0  0  0  0  0  0  0  0  0  0  0
    7.8512   -0.5637    0.0000 F   0  0  0  0  0  0  0  0  0  0  0  0
    3.0800   -1.5400    0.0000 F   0  0  0  0  0  0  0  0  0  0  0  0
    3.6437    0.5637    0.0000 F   0  0  0  0  0  0  0  0  0  0  0  0
    5.1837   -2.1037    0.0000 F   0  0  0  0  0  0  0  0  0  0  0  0
    5.7475    0.0000    0.0000 C   0  0  0  0  0  0  0  0  0  0  0  0
    7.0812    0.7700    0.0000 C   0  0  0  0  0  0  0  0  0  0  0  0
    4.4137   -0.7700    0.0000 C   0  0  0  0  0  0  0  0  0  0  0  0
    8.4149    1.5400    0.0000 C   0  0  0  0  0  0  0  0  0  0  0  0
    9.7485    0.7700    0.0000 C   0  0  0  0  0  0  0  0  0  0  0  0
   11.0824    1.5400    0.0000 C   0  0  0  0  0  0  0  0  0  0  0  0
  1  8  1  0  0  0  0
  2  8  1  0  0  0  0
  3  9  1  0  0  0  0
  4  9  1  0  0  0  0
  5 10  1  0  0  0  0
  6 10  1  0  0  0  0
  7 10  1  0  0  0  0
  8  9  1  0  0  0  0
  8 10  1  0  0  0  0
  9 11  1  0  0  0  0
 11 12  2  3  0  0  0
 12 13  1  0  0  0  0
M  END
>  <INPUT>
DTXSID70379270

>  <FOUND_BY>
DSSTox_Substance_Id

>  <DTXSID>
DTXSID70379270

>  <PREFERRED_NAME>
1-Propenylperfluoropropane

>  <CASRN>
355-95-3

>  <INCHIKEY>
HVOUHYGSLBPLGT-UHFFFAOYSA-N

>  <IUPAC_NAME>
4,4,5,5,6,6,6-Heptafluorohex-2-ene

>  <SMILES>
CC=CC(F)(F)C(F)(F)C(F)(F)F

>  <INCHI_STRING>
InChI=1S/C6H5F7/c1-2-3-4(7,8)5(9,10)6(11,12)13/h2-3H,1H3

>  <MOLECULAR_FORMULA>
C6H5F7

>  <AVERAGE_MASS>
210.095

>  <MONOISOTOPIC_MASS>
210.027947302

>  <MOL_FILE>
MOL_FILE

$$$$

  -INDIGO-02112615072D

 30 29  0  0  0  0  0  0  0  0999 V2000
    3.0800   -2.2070    0.0000 Cl  0  0  0  0  0  0  0  0  0  0  0  0
   11.6461    1.4368    0.0000 F   0  0  0  0  0  0  0  0  0  0  0  0
   13.1861   -1.2305    0.0000 F   0  0  0  0  0  0  0  0  0  0  0  0
   10.3124    0.6668    0.0000 F   0  0  0  0  0  0  0  0  0  0  0  0
   11.8524   -2.0005    0.0000 F   0  0  0  0  0  0  0  0  0  0  0  0
   12.9797    2.2070    0.0000 F   0  0  0  0  0  0  0  0  0  0  0  0
   14.5197   -0.4605    0.0000 F   0  0  0  0  0  0  0  0  0  0  0  0
    8.9785   -0.1032    0.0000 F   0  0  0  0  0  0  0  0  0  0  0  0
   10.5187   -2.7705    0.0000 F   0  0  0  0  0  0  0  0  0  0  0  0
   15.8534    0.3095    0.0000 F   0  0  0  0  0  0  0  0  0  0  0  0
   14.3134    2.9770    0.0000 F   0  0  0  0  0  0  0  0  0  0  0  0
    7.6449   -0.8732    0.0000 F   0  0  0  0  0  0  0  0  0  0  0  0
    9.1849   -3.5405    0.0000 F   0  0  0  0  0  0  0  0  0  0  0  0
   17.1873    1.0795    0.0000 F   0  0  0  0  0  0  0  0  0  0  0  0
   15.6471    3.7470    0.0000 F   0  0  0  0  0  0  0  0  0  0  0  0
   19.0846    3.9532    0.0000 F   0  0  0  0  0  0  0  0  0  0  0  0
   18.5209    1.8495    0.0000 F   0  0  0  0  0  0  0  0  0  0  0  0
   16.9809    4.5170    0.0000 F   0  0  0  0  0  0  0  0  0  0  0  0
    4.4137   -4.5170    0.0000 O   0  0  0  0  0  0  0  0  0  0  0  0
   12.4161    0.1032    0.0000 C   0  0  0  0  0  0  0  0  0  0  0  0
   11.0824   -0.6668    0.0000 C   0  0  0  0  0  0  0  0  0  0  0  0
   13.7497    0.8732    0.0000 C   0  0  0  0  0  0  0  0  0  0  0  0
    9.7485   -1.4368    0.0000 C   0  0  0  0  0  0  0  0  0  0  0  0
   15.0834    1.6432    0.0000 C   0  0  0  0  0  0  0  0  0  0  0  0
    8.4149   -2.2070    0.0000 C   0  0  0  0  0  0  0  0  0  0  0  0
   16.4171    2.4132    0.0000 C   0  0  0  0  0  0  0  0  0  0  0  0
    7.0812   -2.9770    0.0000 C   0  0  0  0  0  0  0  0  0  0  0  0
   17.7509    3.1832    0.0000 C   0  0  0  0  0  0  0  0  0  0  0  0
    5.7475   -2.2070    0.0000 C   0  0  0  0  0  0  0  0  0  0  0  0
    4.4137   -2.9770    0.0000 C   0  0  0  0  0  0  0  0  0  0  0  0
  1 30  1  0  0  0  0
  2 20  1  0  0  0  0
  3 20  1  0  0  0  0
  4 21  1  0  0  0  0
  5 21  1  0  0  0  0
  6 22  1  0  0  0  0
  7 22  1  0  0  0  0
  8 23  1  0  0  0  0
  9 23  1  0  0  0  0
 10 24  1  0  0  0  0
 11 24  1  0  0  0  0
 12 25  1  0  0  0  0
 13 25  1  0  0  0  0
 14 26  1  0  0  0  0
 15 26  1  0  0  0  0
 16 28  1  0  0  0  0
 17 28  1  0  0  0  0
 18 28  1  0  0  0  0
 19 30  2  0  0  0  0
 20 21  1  0  0  0  0
 20 22  1  0  0  0  0
 21 23  1  0  0  0  0
 22 24  1  0  0  0  0
 23 25  1  0  0  0  0
 24 26  1  0  0  0  0
 25 27  1  0  0  0  0
 26 28  1  0  0  0  0
 27 29  1  0  0  0  0
 29 30  1  0  0  0  0
M  END
>  <INPUT>
DTXSID90446276

>  <FOUND_BY>
DSSTox_Substance_Id

>  <DTXSID>
DTXSID90446276

>  <PREFERRED_NAME>
(Perfluorooctyl)propanoyl chloride

>  <CASRN>
89373-67-1

>  <INCHIKEY>
QYLZAPXXSYDKKB-UHFFFAOYSA-N

>  <IUPAC_NAME>
4,4,5,5,6,6,7,7,8,8,9,9,10,10,11,11,11-Heptadecafluoroundecanoyl chloride

>  <SMILES>
FC(F)(F)C(F)(F)C(F)(F)C(F)(F)C(F)(F)C(F)(F)C(F)(F)C(F)(F)CCC(Cl)=O

>  <INCHI_STRING>
InChI=1S/C11H4ClF17O/c12-3(30)1-2-4(13,14)5(15,16)6(17,18)7(19,20)8(21,22)9(23,24)10(25,26)11(27,28)29/h1-2H2

>  <MOLECULAR_FORMULA>
C11H4ClF17O

>  <AVERAGE_MASS>
510.57

>  <MONOISOTOPIC_MASS>
509.9679212

>  <MOL_FILE>
MOL_FILE

$$$$

  -INDIGO-02112615072D

 21 20  0  0  0  0  0  0  0  0999 V2000
    1.5400    0.0000    0.0000 C   0  0  0  0  0  0  0  0  0  0  0  0
    1.5400   -1.5400    0.0000 C   0  0  0  0  0  0  0  0  0  0  0  0
    1.5400   -3.0800    0.0000 C   0  0  0  0  0  0  0  0  0  0  0  0
    0.2063   -3.8500    0.0000 O   0  0  0  0  0  0  0  0  0  0  0  0
    0.2063   -5.3900    0.0000 C   0  0  0  0  0  0  0  0  0  0  0  0
   -1.1274   -6.1600    0.0000 C   0  0  0  0  0  0  0  0  0  0  0  0
   -1.1274   -7.7000    0.0000 C   0  0  0  0  0  0  0  0  0  0  0  0
    1.5400   -6.1600    0.0000 O   0  0  0  0  0  0  0  0  0  0  0  0
    3.0800   -1.5400    0.0000 F   0  0  0  0  0  0  0  0  0  0  0  0
    0.0000   -1.5400    0.0000 F   0  0  0  0  0  0  0  0  0  0  0  0
    1.5400    1.5400    0.0000 C   0  0  0  0  0  0  0  0  0  0  0  0
    1.5400    3.0800    0.0000 C   0  0  0  0  0  0  0  0  0  0  0  0
    2.8737    3.8500    0.0000 O   0  0  0  0  0  0  0  0  0  0  0  0
    2.8737    5.3900    0.0000 C   0  0  0  0  0  0  0  0  0  0  0  0
    4.2074    6.1600    0.0000 C   0  0  0  0  0  0  0  0  0  0  0  0
    4.2074    7.7000    0.0000 C   0  0  0  0  0  0  0  0  0  0  0  0
    1.5400    6.1600    0.0000 O   0  0  0  0  0  0  0  0  0  0  0  0
    3.0800    1.5400    0.0000 F   0  0  0  0  0  0  0  0  0  0  0  0
    0.0000    1.5400    0.0000 F   0  0  0  0  0  0  0  0  0  0  0  0
    3.0800    0.0000    0.0000 F   0  0  0  0  0  0  0  0  0  0  0  0
    0.0000    0.0000    0.0000 F   0  0  0  0  0  0  0  0  0  0  0  0
  1  2  1  0  0  0  0
  2  3  1  0  0  0  0
  3  4  1  0  0  0  0
  4  5  1  0  0  0  0
  5  6  1  0  0  0  0
  6  7  2  0  0  0  0
  5  8  2  0  0  0  0
  2  9  1  0  0  0  0
  2 10  1  0  0  0  0
  1 11  1  0  0  0  0
 11 12  1  0  0  0  0
 12 13  1  0  0  0  0
 13 14  1  0  0  0  0
 14 15  1  0  0  0  0
 15 16  2  0  0  0  0
 14 17  2  0  0  0  0
 11 18  1  0  0  0  0
 11 19  1  0  0  0  0
  1 20  1  0  0  0  0
  1 21  1  0  0  0  0
M  END
>  <INPUT>
DTXSID5060986

>  <FOUND_BY>
DSSTox_Substance_Id

>  <DTXSID>
DTXSID5060986

>  <PREFERRED_NAME>
1H,1H,5H,5H-Perfluoro-1,5-pentanediol diacrylate

>  <CASRN>
678-95-5

>  <INCHIKEY>
DOZNAYNLYNBXKE-UHFFFAOYSA-N

>  <IUPAC_NAME>
2,2,3,3,4,4-Hexafluoropentane-1,5-diyl diprop-2-enoate

>  <SMILES>
FC(F)(COC(=O)C=C)C(F)(F)C(F)(F)COC(=O)C=C

>  <INCHI_STRING>
InChI=1S/C11H10F6O4/c1-3-7(18)20-5-9(12,13)11(16,17)10(14,15)6-21-8(19)4-2/h3-4H,1-2,5-6H2


>  <MOLECULAR_FORMULA>
C11H10F6O4

>  <AVERAGE_MASS>
320.187

>  <MONOISOTOPIC_MASS>
320.04832778

>  <MOL_FILE>
MOL_FILE

$$$$

  -INDIGO-02112615072D

 33 32  0  0  0  0  0  0  0  0999 V2000
    8.4700   14.6705    0.0000 O   0  0  0  0  0  0  0  0  0  0  0  0
    9.2400   13.3368    0.0000 C   0  0  0  0  0  0  0  0  0  0  0  0
   10.7800   13.3368    0.0000 O   0  0  0  0  0  0  0  0  0  0  0  0
    8.4700   12.0030    0.0000 C   0  0  0  0  0  0  0  0  0  0  0  0
    7.1363   12.7730    0.0000 F   0  0  0  0  0  0  0  0  0  0  0  0
    9.8037   11.2330    0.0000 F   0  0  0  0  0  0  0  0  0  0  0  0
    7.7000   10.6695    0.0000 C   0  0  0  0  0  0  0  0  0  0  0  0
    6.3663   11.4395    0.0000 F   0  0  0  0  0  0  0  0  0  0  0  0
    9.0337    9.8995    0.0000 F   0  0  0  0  0  0  0  0  0  0  0  0
    6.9300    9.3358    0.0000 C   0  0  0  0  0  0  0  0  0  0  0  0
    5.5963   10.1058    0.0000 F   0  0  0  0  0  0  0  0  0  0  0  0
    8.2637    8.5658    0.0000 F   0  0  0  0  0  0  0  0  0  0  0  0
    6.1600    8.0020    0.0000 C   0  0  0  0  0  0  0  0  0  0  0  0
    4.8263    8.7720    0.0000 F   0  0  0  0  0  0  0  0  0  0  0  0
    7.4937    7.2320    0.0000 F   0  0  0  0  0  0  0  0  0  0  0  0
    5.3900    6.6685    0.0000 C   0  0  0  0  0  0  0  0  0  0  0  0
    4.0563    7.4385    0.0000 F   0  0  0  0  0  0  0  0  0  0  0  0
    6.7237    5.8985    0.0000 F   0  0  0  0  0  0  0  0  0  0  0  0
    4.6200    5.3347    0.0000 C   0  0  0  0  0  0  0  0  0  0  0  0
    3.2863    6.1047    0.0000 F   0  0  0  0  0  0  0  0  0  0  0  0
    5.9537    4.5647    0.0000 F   0  0  0  0  0  0  0  0  0  0  0  0
    3.8500    4.0010    0.0000 C   0  0  0  0  0  0  0  0  0  0  0  0
    2.5163    4.7710    0.0000 F   0  0  0  0  0  0  0  0  0  0  0  0
    5.1837    3.2310    0.0000 F   0  0  0  0  0  0  0  0  0  0  0  0
    3.0800    2.6673    0.0000 C   0  0  0  0  0  0  0  0  0  0  0  0
    1.7463    3.4373    0.0000 F   0  0  0  0  0  0  0  0  0  0  0  0
    4.4137    1.8973    0.0000 F   0  0  0  0  0  0  0  0  0  0  0  0
    2.3100    1.3337    0.0000 C   0  0  0  0  0  0  0  0  0  0  0  0
    0.9763    2.1037    0.0000 F   0  0  0  0  0  0  0  0  0  0  0  0
    3.6437    0.5637    0.0000 F   0  0  0  0  0  0  0  0  0  0  0  0
    1.5400    0.0000    0.0000 C   0  0  0  0  0  0  0  0  0  0  0  0
    2.3100   -1.3337    0.0000 F   0  0  0  0  0  0  0  0  0  0  0  0
    0.0000    0.0000    0.0000 F   0  0  0  0  0  0  0  0  0  0  0  0
  1  2  2  0  0  0  0
  2  3  1  0  0  0  0
  2  4  1  0  0  0  0
  4  5  1  0  0  0  0
  4  6  1  0  0  0  0
  4  7  1  0  0  0  0
  7  8  1  0  0  0  0
  7  9  1  0  0  0  0
  7 10  1  0  0  0  0
 10 11  1  0  0  0  0
 10 12  1  0  0  0  0
 10 13  1  0  0  0  0
 13 14  1  0  0  0  0
 13 15  1  0  0  0  0
 13 16  1  0  0  0  0
 16 17  1  0  0  0  0
 16 18  1  0  0  0  0
 16 19  1  0  0  0  0
 19 20  1  0  0  0  0
 19 21  1  0  0  0  0
 19 22  1  0  0  0  0
 22 23  1  0  0  0  0
 22 24  1  0  0  0  0
 22 25  1  0  0  0  0
 25 26  1  0  0  0  0
 25 27  1  0  0  0  0
 25 28  1  0  0  0  0
 28 29  1  0  0  0  0
 28 30  1  0  0  0  0
 28 31  1  0  0  0  0
 31 32  1  0  0  0  0
 31 33  1  0  0  0  0
M  END
>  <INPUT>
DTXSID5061954

>  <FOUND_BY>
DSSTox_Substance_Id

>  <DTXSID>
DTXSID5061954

>  <PREFERRED_NAME>
11-H-Perfluoroundecanoic acid

>  <CASRN>
1765-48-6

>  <INCHIKEY>
MMYNPHSPRPZSSN-UHFFFAOYSA-N

>  <IUPAC_NAME>
2,2,3,3,4,4,5,5,6,6,7,7,8,8,9,9,10,10,11,11-Icosafluoroundecanoic acid

>  <SMILES>
OC(=O)C(F)(F)C(F)(F)C(F)(F)C(F)(F)C(F)(F)C(F)(F)C(F)(F)C(F)(F)C(F)(F)C(F)F

>  <INCHI_STRING>
InChI=1S/C11H2F20O2/c12-1(13)3(14,15)5(18,19)7(22,23)9(26,27)11(30,31)10(28,29)8(24,25)6(20,21)4(16,17)2(32)33/h1H,(H,32,33)

>  <MOLECULAR_FORMULA>
C11H2F20O2

>  <AVERAGE_MASS>
546.103

>  <MONOISOTOPIC_MASS>
545.973542564

>  <MOL_FILE>
MOL_FILE

$$$$

  -INDIGO-02112615072D

 12 11  0  0  0  0  0  0  0  0999 V2000
    1.5400    0.0000    0.0000 C   0  0  0  0  0  0  0  0  0  0  0  0
    1.5400   -1.5400    0.0000 C   0  0  0  0  0  0  0  0  0  0  0  0
    0.2063   -2.3100    0.0000 F   0  0  0  0  0  0  0  0  0  0  0  0
    2.8737   -2.3100    0.0000 F   0  0  0  0  0  0  0  0  0  0  0  0
    1.5400    1.5400    0.0000 O   0  0  0  0  0  0  0  0  0  0  0  0
    2.8737    2.3100    0.0000 C   0  0  0  0  0  0  0  0  0  0  0  0
    2.8737    3.8500    0.0000 C   0  0  0  0  0  0  0  0  0  0  0  0
    2.8737    5.3900    0.0000 F   0  0  0  0  0  0  0  0  0  0  0  0
    4.4137    3.8500    0.0000 F   0  0  0  0  0  0  0  0  0  0  0  0
    1.3337    3.8500    0.0000 F   0  0  0  0  0  0  0  0  0  0  0  0
    3.0800    0.0000    0.0000 F   0  0  0  0  0  0  0  0  0  0  0  0
    0.0000    0.0000    0.0000 F   0  0  0  0  0  0  0  0  0  0  0  0
  1  2  1  0  0  0  0
  2  3  1  0  0  0  0
  2  4  1  0  0  0  0
  1  5  1  0  0  0  0
  5  6  1  0  0  0  0
  6  7  1  0  0  0  0
  7  8  1  0  0  0  0
  7  9  1  0  0  0  0
  7 10  1  0  0  0  0
  1 11  1  0  0  0  0
  1 12  1  0  0  0  0
M  END
>  <INPUT>
DTXSID8074786

>  <FOUND_BY>
DSSTox_Substance_Id

>  <DTXSID>
DTXSID8074786

>  <PREFERRED_NAME>
(1H,1H-Perfluoroethyl)(2H-perfluoroethyl)ether

>  <CASRN>
406-78-0

>  <INCHIKEY>
CWIFAKBLLXGZIC-UHFFFAOYSA-N

>  <IUPAC_NAME>
1,1,2,2-Tetrafluoro-1-(2,2,2-trifluoroethoxy)ethane

>  <SMILES>
FC(F)C(F)(F)OCC(F)(F)F

>  <INCHI_STRING>
InChI=1S/C4H3F7O/c5-2(6)4(10,11)12-1-3(7,8)9/h2H,1H2

>  <MOLECULAR_FORMULA>
C4H3F7O

>  <AVERAGE_MASS>
200.056

>  <MONOISOTOPIC_MASS>
200.007211858

>  <MOL_FILE>
MOL_FILE

$$$$

  -INDIGO-02112615072D

 11 11  0  0  0  0  0  0  0  0999 V2000
    6.6957    1.8079    0.0000 F   0  0  0  0  0  0  0  0  0  0  0  0
    4.8854    1.8079    0.0000 F   0  0  0  0  0  0  0  0  0  0  0  0
    3.0800   -0.8191    0.0000 F   0  0  0  0  0  0  0  0  0  0  0  0
    3.6394    0.9025    0.0000 F   0  0  0  0  0  0  0  0  0  0  0  0
    8.5012   -0.8191    0.0000 F   0  0  0  0  0  0  0  0  0  0  0  0
    7.9417    0.9025    0.0000 F   0  0  0  0  0  0  0  0  0  0  0  0
    5.7906    0.5619    0.0000 C   0  0  0  0  0  0  0  0  0  0  0  0
    4.5448   -0.3433    0.0000 C   0  0  0  0  0  0  0  0  0  0  0  0
    7.0364   -0.3433    0.0000 C   0  0  0  0  0  0  0  0  0  0  0  0
    5.0206   -1.8079    0.0000 C   0  0  0  0  0  0  0  0  0  0  0  0
    6.5606   -1.8079    0.0000 C   0  0  0  0  0  0  0  0  0  0  0  0
  1  7  1  0  0  0  0
  2  7  1  0  0  0  0
  3  8  1  0  0  0  0
  4  8  1  0  0  0  0
  5  9  1  0  0  0  0
  6  9  1  0  0  0  0
  7  8  1  0  0  0  0
  7  9  1  0  0  0  0
  8 10  1  0  0  0  0
  9 11  1  0  0  0  0
 10 11  2  0  0  0  0
M  END
>  <INPUT>
DTXSID10461880

>  <FOUND_BY>
DSSTox_Substance_Id

>  <DTXSID>
DTXSID10461880

>  <PREFERRED_NAME>
1H,2H-Hexafluorocyclopentene

>  <CASRN>
1005-73-8

>  <INCHIKEY>
FHQKLIHFKVAEEP-UHFFFAOYSA-N

>  <IUPAC_NAME>
3,3,4,4,5,5-Hexafluorocyclopent-1-ene

>  <SMILES>
FC1(F)C=CC(F)(F)C1(F)F

>  <INCHI_STRING>
InChI=1S/C5H2F6/c6-3(7)1-2-4(8,9)5(3,10)11/h1-2H

>  <MOLECULAR_FORMULA>
C5H2F6

>  <AVERAGE_MASS>
176.061

>  <MONOISOTOPIC_MASS>
176.006069042

>  <MOL_FILE>
MOL_FILE

$$$$

  -INDIGO-02112615072D

 19 18  0  0  0  0  0  0  0  0999 V2000
    6.3112    1.8219    0.0000 F   0  0  0  0  0  0  0  0  0  0  0  0
    7.8512   -0.8454    0.0000 F   0  0  0  0  0  0  0  0  0  0  0  0
    7.6449    2.5919    0.0000 F   0  0  0  0  0  0  0  0  0  0  0  0
    9.1849   -0.0754    0.0000 F   0  0  0  0  0  0  0  0  0  0  0  0
    5.7475   -3.3619    0.0000 F   0  0  0  0  0  0  0  0  0  0  0  0
    4.2073   -1.8219    0.0000 F   0  0  0  0  0  0  0  0  0  0  0  0
    3.0800    1.2581    0.0000 F   0  0  0  0  0  0  0  0  0  0  0  0
    3.6437   -0.8454    0.0000 F   0  0  0  0  0  0  0  0  0  0  0  0
    5.1837    1.8219    0.0000 F   0  0  0  0  0  0  0  0  0  0  0  0
    7.2875   -1.8219    0.0000 F   0  0  0  0  0  0  0  0  0  0  0  0
   11.0824    2.7983    0.0000 F   0  0  0  0  0  0  0  0  0  0  0  0
   10.5187    0.6946    0.0000 F   0  0  0  0  0  0  0  0  0  0  0  0
    8.9785    3.3619    0.0000 F   0  0  0  0  0  0  0  0  0  0  0  0
    5.7475   -0.2819    0.0000 C   0  0  0  0  0  0  0  0  0  0  0  0
    7.0812    0.4881    0.0000 C   0  0  0  0  0  0  0  0  0  0  0  0
    8.4149    1.2581    0.0000 C   0  0  0  0  0  0  0  0  0  0  0  0
    4.4137    0.4881    0.0000 C   0  0  0  0  0  0  0  0  0  0  0  0
    5.7475   -1.8219    0.0000 C   0  0  0  0  0  0  0  0  0  0  0  0
    9.7485    2.0281    0.0000 C   0  0  0  0  0  0  0  0  0  0  0  0
  1 15  1  0  0  0  0
  2 15  1  0  0  0  0
  3 16  1  0  0  0  0
  4 16  1  0  0  0  0
  5 18  1  0  0  0  0
  6 18  1  0  0  0  0
  7 17  1  0  0  0  0
  8 17  1  0  0  0  0
  9 17  1  0  0  0  0
 10 18  1  0  0  0  0
 11 19  1  0  0  0  0
 12 19  1  0  0  0  0
 13 19  1  0  0  0  0
 14 15  1  0  0  0  0
 14 17  1  0  0  0  0
 14 18  1  0  0  0  0
 15 16  1  0  0  0  0
 16 19  1  0  0  0  0
M  END
>  <INPUT>
DTXSID90448210

>  <FOUND_BY>
DSSTox_Substance_Id

>  <DTXSID>
DTXSID90448210

>  <PREFERRED_NAME>
2H-Perfluoro(2-methylpentane)

>  <CASRN>
30320-28-6

>  <INCHIKEY>
MEJBVGIZGKKPCW-UHFFFAOYSA-N

>  <IUPAC_NAME>
1,1,1,2,2,3,3,5,5,5-Decafluoro-4-(trifluoromethyl)pentane

>  <SMILES>
FC(F)(F)C(C(F)(F)F)C(F)(F)C(F)(F)C(F)(F)F

>  <INCHI_STRING>
InChI=1S/C6HF13/c7-2(8,5(15,16)6(17,18)19)1(3(9,10)11)4(12,13)14/h1H

>  <MOLECULAR_FORMULA>
C6HF13

>  <AVERAGE_MASS>
320.053

>  <MONOISOTOPIC_MASS>
319.987066151

>  <MOL_FILE>
MOL_FILE

$$$$

  -INDIGO-02112615072D

 19 18  0  0  0  0  0  0  0  0999 V2000
   -3.3197   -2.6923    0.0000 S   0  0  0  0  0  0  0  0  0  0  0  0
    1.2338    3.2446    0.0000 F   0  0  0  0  0  0  0  0  0  0  0  0
    2.7567    0.5883    0.0000 F   0  0  0  0  0  0  0  0  0  0  0  0
    2.5580    4.0206    0.0000 F   0  0  0  0  0  0  0  0  0  0  0  0
    4.0902    1.3588    0.0000 F   0  0  0  0  0  0  0  0  0  0  0  0
    1.4229   -0.1820    0.0000 F   0  0  0  0  0  0  0  0  0  0  0  0
   -0.0995    2.4744    0.0000 F   0  0  0  0  0  0  0  0  0  0  0  0
    0.1000   -0.9345    0.0000 F   0  0  0  0  0  0  0  0  0  0  0  0
   -1.4332    1.7040    0.0000 F   0  0  0  0  0  0  0  0  0  0  0  0
   -4.0902   -1.3589    0.0000 O   0  0  0  0  0  0  0  0  0  0  0  0
   -2.5581   -4.0206    0.0000 O   0  0  0  0  0  0  0  0  0  0  0  0
   -4.6529   -3.4626    0.0000 O   0  0  0  0  0  0  0  0  0  0  0  0
    1.9862    1.9217    0.0000 C   0  0  0  0  0  0  0  0  0  0  0  0
    3.3196    2.6923    0.0000 C   0  0  0  0  0  0  0  0  0  0  0  0
    0.6616    1.1460    0.0000 C   0  0  0  0  0  0  0  0  0  0  0  0
   -0.6664    0.3847    0.0000 C   0  0  0  0  0  0  0  0  0  0  0  0
   -1.9856   -0.3817    0.0000 C   0  0  0  0  0  0  0  0  0  0  0  0
   -1.9862   -1.9218    0.0000 C   0  0  0  0  0  0  0  0  0  0  0  0
    4.6529    3.4626    0.0000 F   0  0  0  0  0  0  0  0  0  0  0  0
  1 10  2  0  0  0  0
  1 11  2  0  0  0  0
  1 12  1  0  0  0  0
  1 18  1  0  0  0  0
  2 13  1  0  0  0  0
  3 13  1  0  0  0  0
  4 14  1  0  0  0  0
  5 14  1  0  0  0  0
  6 15  1  0  0  0  0
  7 15  1  0  0  0  0
  8 16  1  0  0  0  0
  9 16  1  0  0  0  0
 13 14  1  0  0  0  0
 13 15  1  0  0  0  0
 15 16  1  0  0  0  0
 16 17  1  0  0  0  0
 17 18  1  0  0  0  0
 14 19  1  0  0  0  0
M  END
>  <INPUT>
DTXSID30891564

>  <FOUND_BY>
DSSTox_Substance_Id

>  <DTXSID>
DTXSID30891564

>  <PREFERRED_NAME>
4:2 Fluorotelomer sulfonic acid

>  <CASRN>
757124-72-4

>  <INCHIKEY>
TXGIGTRUEITPSC-UHFFFAOYSA-N

>  <IUPAC_NAME>
3,3,4,4,5,5,6,6,6-Nonafluorohexane-1-sulfonic acid

>  <SMILES>
OS(=O)(=O)CCC(F)(F)C(F)(F)C(F)(F)C(F)(F)F

>  <INCHI_STRING>
InChI=1S/C6H5F9O3S/c7-3(8,1-2-19(16,17)18)4(9,10)5(11,12)6(13,14)15/h1-2H2,(H,16,17,18)


>  <MOLECULAR_FORMULA>
C6H5F9O3S

>  <AVERAGE_MASS>
328.15

>  <MONOISOTOPIC_MASS>
327.981568662

>  <MOL_FILE>
MOL_FILE

$$$$

  -INDIGO-02112615072D

 13 12  0  0  0  0  0  0  0  0999 V2000
    8.4149    2.6520    0.0000 F   0  0  0  0  0  0  0  0  0  0  0  0
    7.8512    0.5482    0.0000 F   0  0  0  0  0  0  0  0  0  0  0  0
    6.3112    3.2155    0.0000 F   0  0  0  0  0  0  0  0  0  0  0  0
    3.0800    2.6520    0.0000 F   0  0  0  0  0  0  0  0  0  0  0  0
    3.6437    0.5482    0.0000 F   0  0  0  0  0  0  0  0  0  0  0  0
    5.1837    3.2155    0.0000 F   0  0  0  0  0  0  0  0  0  0  0  0
    4.4137   -2.7382    0.0000 O   0  0  0  0  0  0  0  0  0  0  0  0
    3.0800   -0.4282    0.0000 O   0  0  0  0  0  0  0  0  0  0  0  0
    5.7475    1.1120    0.0000 C   0  0  0  0  0  0  0  0  0  0  0  0
    5.7475   -0.4282    0.0000 C   0  0  0  0  0  0  0  0  0  0  0  0
    7.0812    1.8820    0.0000 C   0  0  0  0  0  0  0  0  0  0  0  0
    4.4137    1.8820    0.0000 C   0  0  0  0  0  0  0  0  0  0  0  0
    4.4137   -1.1982    0.0000 C   0  0  0  0  0  0  0  0  0  0  0  0
  1 11  1  0  0  0  0
  2 11  1  0  0  0  0
  3 11  1  0  0  0  0
  4 12  1  0  0  0  0
  5 12  1  0  0  0  0
  6 12  1  0  0  0  0
  7 13  1  0  0  0  0
  8 13  2  0  0  0  0
  9 10  1  0  0  0  0
  9 11  1  0  0  0  0
  9 12  1  0  0  0  0
 10 13  1  0  0  0  0
M  END
>  <INPUT>
DTXSID60381968

>  <FOUND_BY>
DSSTox_Substance_Id

>  <DTXSID>
DTXSID60381968

>  <PREFERRED_NAME>
2(2H-Perfluoro-2-propyl)acetic acid

>  <CASRN>
17327-33-2

>  <INCHIKEY>
BXOJQJKUSQRUKV-UHFFFAOYSA-N

>  <IUPAC_NAME>
4,4,4-Trifluoro-3-(trifluoromethyl)butanoic acid

>  <SMILES>
OC(=O)CC(C(F)(F)F)C(F)(F)F

>  <INCHI_STRING>
InChI=1S/C5H4F6O2/c6-4(7,8)2(1-3(12)13)5(9,10)11/h2H,1H2,(H,12,13)

>  <MOLECULAR_FORMULA>
C5H4F6O2

>  <AVERAGE_MASS>
210.075

>  <MONOISOTOPIC_MASS>
210.011548347

>  <MOL_FILE>
MOL_FILE

$$$$

  -INDIGO-02112615072D

 16 15  0  0  0  0  0  0  0  0999 V2000
    9.7485    0.3851    0.0000 S   0  0  0  0  0  0  0  0  0  0  0  0
    4.9775    0.9486    0.0000 F   0  0  0  0  0  0  0  0  0  0  0  0
    6.5175   -1.7186    0.0000 F   0  0  0  0  0  0  0  0  0  0  0  0
    3.0800   -1.9251    0.0000 F   0  0  0  0  0  0  0  0  0  0  0  0
    3.6437    0.1786    0.0000 F   0  0  0  0  0  0  0  0  0  0  0  0
    5.1837   -2.4886    0.0000 F   0  0  0  0  0  0  0  0  0  0  0  0
   12.4161    1.9251    0.0000 F   0  0  0  0  0  0  0  0  0  0  0  0
   11.8524   -0.1786    0.0000 F   0  0  0  0  0  0  0  0  0  0  0  0
   10.3124    2.4886    0.0000 F   0  0  0  0  0  0  0  0  0  0  0  0
    8.4149   -0.3851    0.0000 O   0  0  0  0  0  0  0  0  0  0  0  0
    8.9785    1.7186    0.0000 O   0  0  0  0  0  0  0  0  0  0  0  0
   10.5187   -0.9486    0.0000 O   0  0  0  0  0  0  0  0  0  0  0  0
    5.7475   -0.3851    0.0000 C   0  0  0  0  0  0  0  0  0  0  0  0
    7.0812    0.3851    0.0000 C   0  0  0  0  0  0  0  0  0  0  0  0
    4.4137   -1.1551    0.0000 C   0  0  0  0  0  0  0  0  0  0  0  0
   11.0824    1.1551    0.0000 C   0  0  0  0  0  0  0  0  0  0  0  0
  1 10  1  0  0  0  0
  1 11  2  0  0  0  0
  1 12  2  0  0  0  0
  1 16  1  0  0  0  0
  2 13  1  0  0  0  0
  3 13  1  0  0  0  0
  4 15  1  0  0  0  0
  5 15  1  0  0  0  0
  6 15  1  0  0  0  0
  7 16  1  0  0  0  0
  8 16  1  0  0  0  0
  9 16  1  0  0  0  0
 10 14  1  0  0  0  0
 13 14  1  0  0  0  0
 13 15  1  0  0  0  0
M  END
>  <INPUT>
DTXSID60379769

>  <FOUND_BY>
DSSTox_Substance_Id

>  <DTXSID>
DTXSID60379769

>  <PREFERRED_NAME>
3H,3H-Perfluoropropyl triflate

>  <CASRN>
6401-00-9

>  <INCHIKEY>
QHZUUSNAUOEJBB-UHFFFAOYSA-N

>  <IUPAC_NAME>
2,2,3,3,3-Pentafluoropropyl trifluoromethanesulfonate

>  <SMILES>
FC(F)(F)C(F)(F)COS(=O)(=O)C(F)(F)F

>  <INCHI_STRING>
InChI=1S/C4H2F8O3S/c5-2(6,3(7,8)9)1-15-16(13,14)4(10,11)12/h1H2

>  <MOLECULAR_FORMULA>
C4H2F8O3S

>  <AVERAGE_MASS>
282.1

>  <MONOISOTOPIC_MASS>
281.959690402

>  <MOL_FILE>
MOL_FILE

$$$$

  -INDIGO-02112615072D

 15 14  0  0  0  0  0  0  0  0999 V2000
   11.0824    0.0000    0.0000 S   0  0  0  0  0  0  0  0  0  0  0  0
   13.7497    1.5400    0.0000 F   0  0  0  0  0  0  0  0  0  0  0  0
   13.1861   -0.5637    0.0000 F   0  0  0  0  0  0  0  0  0  0  0  0
   11.6461    2.1037    0.0000 F   0  0  0  0  0  0  0  0  0  0  0  0
    3.0800   -1.5400    0.0000 F   0  0  0  0  0  0  0  0  0  0  0  0
    3.6437    0.5637    0.0000 F   0  0  0  0  0  0  0  0  0  0  0  0
    5.1837   -2.1037    0.0000 F   0  0  0  0  0  0  0  0  0  0  0  0
    9.7485   -0.7700    0.0000 O   0  0  0  0  0  0  0  0  0  0  0  0
    5.7475    0.0000    0.0000 O   0  0  0  0  0  0  0  0  0  0  0  0
   10.3124    1.3337    0.0000 O   0  0  0  0  0  0  0  0  0  0  0  0
   11.8524   -1.3337    0.0000 O   0  0  0  0  0  0  0  0  0  0  0  0
    8.4149    0.0000    0.0000 C   0  0  0  0  0  0  0  0  0  0  0  0
    7.0812   -0.7700    0.0000 C   0  0  0  0  0  0  0  0  0  0  0  0
   12.4161    0.7700    0.0000 C   0  0  0  0  0  0  0  0  0  0  0  0
    4.4137   -0.7700    0.0000 C   0  0  0  0  0  0  0  0  0  0  0  0
  1  8  1  0  0  0  0
  1 10  2  0  0  0  0
  1 11  2  0  0  0  0
  1 14  1  0  0  0  0
  2 14  1  0  0  0  0
  3 14  1  0  0  0  0
  4 14  1  0  0  0  0
  5 15  1  0  0  0  0
  6 15  1  0  0  0  0
  7 15  1  0  0  0  0
  8 12  1  0  0  0  0
  9 13  1  0  0  0  0
  9 15  1  0  0  0  0
 12 13  1  0  0  0  0
M  END
>  <INPUT>
DTXSID00442840

>  <FOUND_BY>
DSSTox_Substance_Id

>  <DTXSID>
DTXSID00442840

>  <PREFERRED_NAME>
2-(Trifluoromethoxy)ethyl trifluoromethanesulfonate

>  <CASRN>
329710-76-1

>  <INCHIKEY>
XNNJMXBWUMKLRR-UHFFFAOYSA-N

>  <IUPAC_NAME>
2-(Trifluoromethoxy)ethyl trifluoromethanesulfonate

>  <SMILES>
FC(F)(F)OCCOS(=O)(=O)C(F)(F)F

>  <INCHI_STRING>
InChI=1S/C4H4F6O4S/c5-3(6,7)13-1-2-14-15(11,12)4(8,9)10/h1-2H2

>  <MOLECULAR_FORMULA>
C4H4F6O4S

>  <AVERAGE_MASS>
262.12

>  <MONOISOTOPIC_MASS>
261.973448761

>  <MOL_FILE>
MOL_FILE

$$$$

  -INDIGO-02112615072D

 15 14  0  0  0  0  0  0  0  0999 V2000
    3.6602   -0.3991    0.0000 F   0  0  0  0  0  0  0  0  0  0  0  0
    0.9929   -1.9391    0.0000 F   0  0  0  0  0  0  0  0  0  0  0  0
    3.8666   -3.8364    0.0000 F   0  0  0  0  0  0  0  0  0  0  0  0
    4.4301   -1.7328    0.0000 F   0  0  0  0  0  0  0  0  0  0  0  0
    1.7629   -3.2728    0.0000 F   0  0  0  0  0  0  0  0  0  0  0  0
   -2.2934    1.4983    0.0000 O   0  0  0  0  0  0  0  0  0  0  0  0
    2.3266    1.4983    0.0000 O   0  0  0  0  0  0  0  0  0  0  0  0
    0.0166    2.8320    0.0000 O   0  0  0  0  0  0  0  0  0  0  0  0
    2.3266   -1.1691    0.0000 C   0  0  0  0  0  0  0  0  0  0  0  0
    0.0166    0.1646    0.0000 C   0  0  0  0  0  0  0  0  0  0  0  0
    1.5566    0.1646    0.0000 C   0  0  0  0  0  0  0  0  0  0  0  0
    3.0966   -2.5028    0.0000 C   0  0  0  0  0  0  0  0  0  0  0  0
   -0.7534    1.4983    0.0000 C   0  0  0  0  0  0  0  0  0  0  0  0
   -3.0634    2.8320    0.0000 C   0  0  0  0  0  0  0  0  0  0  0  0
   -4.6033    2.8320    0.0000 C   0  0  0  0  0  0  0  0  0  0  0  0
  1  9  1  0  0  0  0
  2  9  1  0  0  0  0
  3 12  1  0  0  0  0
  4 12  1  0  0  0  0
  5 12  1  0  0  0  0
  6 13  1  0  0  0  0
  6 14  1  0  0  0  0
  7 11  2  0  0  0  0
  8 13  2  0  0  0  0
  9 11  1  0  0  0  0
  9 12  1  0  0  0  0
 10 11  1  0  0  0  0
 10 13  1  0  0  0  0
 14 15  1  0  0  0  0
M  END
>  <INPUT>
DTXSID20880144

>  <FOUND_BY>
DSSTox_Substance_Id

>  <DTXSID>
DTXSID20880144

>  <PREFERRED_NAME>
Ethyl pentafluoropropionyl acetate

>  <CASRN>
663-35-4

>  <INCHIKEY>
MWGSZQXKIYWSFS-UHFFFAOYSA-N

>  <IUPAC_NAME>
Ethyl 4,4,5,5,5-pentafluoro-3-oxopentanoate

>  <SMILES>
CCOC(=O)CC(=O)C(F)(F)C(F)(F)F

>  <INCHI_STRING>
InChI=1S/C7H7F5O3/c1-2-15-5(14)3-4(13)6(8,9)7(10,11)12/h2-3H2,1H3

>  <MOLECULAR_FORMULA>
C7H7F5O3

>  <AVERAGE_MASS>
234.122

>  <MONOISOTOPIC_MASS>
234.0315349

>  <MOL_FILE>
MOL_FILE

$$$$

  -INDIGO-02112615072D

  9  8  0  0  0  0  0  0  0  0999 V2000
    3.8500   -4.0010    0.0000 F   0  0  0  0  0  0  0  0  0  0  0  0
    3.0800   -2.6673    0.0000 C   0  0  0  0  0  0  0  0  0  0  0  0
    4.4137   -1.8973    0.0000 F   0  0  0  0  0  0  0  0  0  0  0  0
    1.7463   -3.4373    0.0000 F   0  0  0  0  0  0  0  0  0  0  0  0
    2.3100   -1.3337    0.0000 C   0  0  0  0  0  0  0  0  0  0  0  0
    3.6437   -0.5637    0.0000 F   0  0  0  0  0  0  0  0  0  0  0  0
    0.9763   -2.1037    0.0000 F   0  0  0  0  0  0  0  0  0  0  0  0
    1.5400    0.0000    0.0000 C   0  0  0  0  0  0  0  0  0  0  0  0
    0.0000    0.0000    0.0000 I   0  0  0  0  0  0  0  0  0  0  0  0
  1  2  1  0  0  0  0
  2  3  1  0  0  0  0
  2  4  1  0  0  0  0
  2  5  1  0  0  0  0
  5  6  1  0  0  0  0
  5  7  1  0  0  0  0
  5  8  1  0  0  0  0
  8  9  1  0  0  0  0
M  END
>  <INPUT>
DTXSID5059870

>  <FOUND_BY>
DSSTox_Substance_Id

>  <DTXSID>
DTXSID5059870

>  <PREFERRED_NAME>
(Perfluoroethyl)methyl iodide

>  <CASRN>
354-69-8

>  <INCHIKEY>
HENALDZJQYAUBN-UHFFFAOYSA-N

>  <IUPAC_NAME>
1,1,1,2,2-Pentafluoro-3-iodopropane

>  <SMILES>
FC(F)(F)C(F)(F)CI

>  <INCHI_STRING>
InChI=1S/C3H2F5I/c4-2(5,1-9)3(6,7)8/h1H2

>  <MOLECULAR_FORMULA>
C3H2F5I

>  <AVERAGE_MASS>
259.945

>  <MONOISOTOPIC_MASS>
259.91214

>  <MOL_FILE>
MOL_FILE

$$$$

  -INDIGO-02112615072D

 29 28  0  0  0  0  0  0  0  0999 V2000
   -0.0170    0.8570    0.0000 C   0  0  0  0  0  0  0  0  0  0  0  0
    1.5230    0.8570    0.0000 C   0  0  0  0  0  0  0  0  0  0  0  0
    3.0630    0.8570    0.0000 C   0  0  0  0  0  0  0  0  0  0  0  0
    4.6030    0.8570    0.0000 C   0  0  0  0  0  0  0  0  0  0  0  0
    6.1430    0.8570    0.0000 C   0  0  0  0  0  0  0  0  0  0  0  0
    7.6830    0.8570    0.0000 C   0  0  0  0  0  0  0  0  0  0  0  0
    9.2230    0.8570    0.0000 F   0  0  0  0  0  0  0  0  0  0  0  0
    7.6830    2.3970    0.0000 F   0  0  0  0  0  0  0  0  0  0  0  0
    7.6830   -0.6830    0.0000 F   0  0  0  0  0  0  0  0  0  0  0  0
    6.1430    2.3970    0.0000 F   0  0  0  0  0  0  0  0  0  0  0  0
    6.1430   -0.6830    0.0000 F   0  0  0  0  0  0  0  0  0  0  0  0
    4.6030    2.3970    0.0000 F   0  0  0  0  0  0  0  0  0  0  0  0
    4.6030   -0.6830    0.0000 F   0  0  0  0  0  0  0  0  0  0  0  0
    3.0630    2.3970    0.0000 F   0  0  0  0  0  0  0  0  0  0  0  0
    3.0630   -0.6830    0.0000 F   0  0  0  0  0  0  0  0  0  0  0  0
    1.5230    2.3970    0.0000 F   0  0  0  0  0  0  0  0  0  0  0  0
    1.5230   -0.6830    0.0000 F   0  0  0  0  0  0  0  0  0  0  0  0
   -1.5570    0.8570    0.0000 S   0  0  0  0  0  0  0  0  0  0  0  0
   -1.5570    2.3970    0.0000 O   0  0  0  0  0  0  0  0  0  0  0  0
   -1.5570   -0.6830    0.0000 O   0  0  0  0  0  0  0  0  0  0  0  0
   -3.0970    0.8570    0.0000 N   0  0  0  0  0  0  0  0  0  0  0  0
   -3.8670   -0.4767    0.0000 C   0  0  0  0  0  0  0  0  0  0  0  0
   -5.4070   -0.4767    0.0000 C   0  0  0  0  0  0  0  0  0  0  0  0
   -6.1770   -1.8104    0.0000 C   0  0  0  0  0  0  0  0  0  0  0  0
   -7.7170   -1.8104    0.0000 N   0  0  0  0  0  0  0  0  0  0  0  0
   -8.4870   -3.1440    0.0000 C   0  0  0  0  0  0  0  0  0  0  0  0
   -8.4870   -0.4767    0.0000 C   0  0  0  0  0  0  0  0  0  0  0  0
   -0.0170    2.3970    0.0000 F   0  0  0  0  0  0  0  0  0  0  0  0
   -0.0170   -0.6830    0.0000 F   0  0  0  0  0  0  0  0  0  0  0  0
  1  2  1  0  0  0  0
  2  3  1  0  0  0  0
  3  4  1  0  0  0  0
  4  5  1  0  0  0  0
  5  6  1  0  0  0  0
  6  7  1  0  0  0  0
  6  8  1  0  0  0  0
  6  9  1  0  0  0  0
  5 10  1  0  0  0  0
  5 11  1  0  0  0  0
  4 12  1  0  0  0  0
  4 13  1  0  0  0  0
  3 14  1  0  0  0  0
  3 15  1  0  0  0  0
  2 16  1  0  0  0  0
  2 17  1  0  0  0  0
  1 18  1  0  0  0  0
 18 19  2  0  0  0  0
 18 20  2  0  0  0  0
 18 21  1  0  0  0  0
 21 22  1  0  0  0  0
 22 23  1  0  0  0  0
 23 24  1  0  0  0  0
 24 25  1  0  0  0  0
 25 26  1  0  0  0  0
 25 27  1  0  0  0  0
  1 28  1  0  0  0  0
  1 29  1  0  0  0  0
M  END
>  <INPUT>
DTXSID7068556

>  <FOUND_BY>
DSSTox_Substance_Id

>  <DTXSID>
DTXSID7068556

>  <PREFERRED_NAME>
N-(3-(Dimethylamino)propyl) perfluorohexane sulfonamide

>  <CASRN>
50598-28-2

>  <INCHIKEY>
INDOGKYZYLAGEM-UHFFFAOYSA-N

>  <IUPAC_NAME>
N-[3-(Dimethylamino)propyl]-1,1,2,2,3,3,4,4,5,5,6,6,6-tridecafluorohexane-1-sulfonamide

>  <SMILES>
CN(C)CCCNS(=O)(=O)C(F)(F)C(F)(F)C(F)(F)C(F)(F)C(F)(F)C(F)(F)F

>  <INCHI_STRING>
InChI=1S/C11H13F13N2O2S/c1-26(2)5-3-4-25-29(27,28)11(23,24)9(18,19)7(14,15)6(12,13)8(16,17)10(20,21)22/h25H,3-5H2,1-2H3


>  <MOLECULAR_FORMULA>
C11H13F13N2O2S

>  <AVERAGE_MASS>
484.28

>  <MONOISOTOPIC_MASS>
484.04901496

>  <MOL_FILE>
MOL_FILE

$$$$

  -INDIGO-02112615072D

 20 19  0  0  0  0  0  0  0  0999 V2000
    3.3681    2.6120    0.0000 F   0  0  0  0  0  0  0  0  0  0  0  0
    1.6977    3.4097    0.0000 F   0  0  0  0  0  0  0  0  0  0  0  0
    3.5634    1.4789    0.0000 F   0  0  0  0  0  0  0  0  0  0  0  0
    2.8142   -1.6947    0.0000 F   0  0  0  0  0  0  0  0  0  0  0  0
    3.8695   -0.3846    0.0000 F   0  0  0  0  0  0  0  0  0  0  0  0
    1.1326   -0.8763    0.0000 F   0  0  0  0  0  0  0  0  0  0  0  0
   -3.8695   -0.2662    0.0000 F   0  0  0  0  0  0  0  0  0  0  0  0
   -3.0914    1.2020    0.0000 F   0  0  0  0  0  0  0  0  0  0  0  0
   -3.0387   -1.5336    0.0000 F   0  0  0  0  0  0  0  0  0  0  0  0
   -0.3587   -3.4097    0.0000 F   0  0  0  0  0  0  0  0  0  0  0  0
   -1.7157   -2.7944    0.0000 F   0  0  0  0  0  0  0  0  0  0  0  0
    0.8459   -2.6686    0.0000 F   0  0  0  0  0  0  0  0  0  0  0  0
    0.2799    2.0967    0.0000 O   0  0  0  0  0  0  0  0  0  0  0  0
   -1.2353    1.2163    0.0000 O   0  0  0  0  0  0  0  0  0  0  0  0
    0.9234    0.6671    0.0000 C   0  0  0  0  0  0  0  0  0  0  0  0
   -0.6214   -0.1936    0.0000 C   0  0  0  0  0  0  0  0  0  0  0  0
    2.0344    1.8420    0.0000 C   0  0  0  0  0  0  0  0  0  0  0  0
    2.3365   -0.1784    0.0000 C   0  0  0  0  0  0  0  0  0  0  0  0
   -2.2731   -0.1805    0.0000 C   0  0  0  0  0  0  0  0  0  0  0  0
   -0.5130   -1.8285    0.0000 C   0  0  0  0  0  0  0  0  0  0  0  0
  1 17  1  0  0  0  0
  2 17  1  0  0  0  0
  3 17  1  0  0  0  0
  4 18  1  0  0  0  0
  5 18  1  0  0  0  0
  6 18  1  0  0  0  0
  7 19  1  0  0  0  0
  8 19  1  0  0  0  0
  9 19  1  0  0  0  0
 10 20  1  0  0  0  0
 11 20  1  0  0  0  0
 12 20  1  0  0  0  0
 13 15  1  0  0  0  0
 14 16  1  0  0  0  0
 15 16  1  0  0  0  0
 15 17  1  0  0  0  0
 15 18  1  0  0  0  0
 16 19  1  0  0  0  0
 16 20  1  0  0  0  0
M  END
>  <INPUT>
DTXSID60238701

>  <FOUND_BY>
DSSTox_Substance_Id

>  <DTXSID>
DTXSID60238701

>  <PREFERRED_NAME>
Perfluoropinacol

>  <CASRN>
918-21-8

>  <INCHIKEY>
GKDCWKGUOZVDFX-UHFFFAOYSA-N

>  <IUPAC_NAME>
1,1,1,4,4,4-Hexafluoro-2,3-bis(trifluoromethyl)butane-2,3-diol

>  <SMILES>
OC(C(O)(C(F)(F)F)C(F)(F)F)(C(F)(F)F)C(F)(F)F

>  <INCHI_STRING>
InChI=1S/C6H2F12O2/c7-3(8,9)1(19,4(10,11)12)2(20,5(13,14)15)6(16,17)18/h19-20H


>  <MOLECULAR_FORMULA>
C6H2F12O2

>  <AVERAGE_MASS>
334.061

>  <MONOISOTOPIC_MASS>
333.98631726

>  <MOL_FILE>
MOL_FILE

$$$$

  -INDIGO-02112615072D

 14 13  0  0  0  0  0  0  0  0999 V2000
   -2.3100    0.0000    0.0000 C   0  0  0  0  0  0  0  0  0  0  0  0
   -0.7700    0.0000    0.0000 C   0  0  0  0  0  0  0  0  0  0  0  0
    0.7700    0.0000    0.0000 C   0  0  0  0  0  0  0  0  0  0  0  0
    2.3100    0.0000    0.0000 C   0  0  0  0  0  0  0  0  0  0  0  0
   -3.8500    0.0000    0.0000 F   0  0  0  0  0  0  0  0  0  0  0  0
   -2.3100    1.5400    0.0000 F   0  0  0  0  0  0  0  0  0  0  0  0
   -2.3100   -1.5400    0.0000 F   0  0  0  0  0  0  0  0  0  0  0  0
   -0.7700   -1.5400    0.0000 F   0  0  0  0  0  0  0  0  0  0  0  0
   -0.7700    1.5400    0.0000 F   0  0  0  0  0  0  0  0  0  0  0  0
    0.7700    1.5400    0.0000 F   0  0  0  0  0  0  0  0  0  0  0  0
    0.7700   -1.5400    0.0000 F   0  0  0  0  0  0  0  0  0  0  0  0
    2.3100   -1.5400    0.0000 F   0  0  0  0  0  0  0  0  0  0  0  0
    2.3100    1.5400    0.0000 F   0  0  0  0  0  0  0  0  0  0  0  0
    3.8500    0.0000    0.0000 I   0  0  0  0  0  0  0  0  0  0  0  0
  2  1  1  0  0  0  0
  5  1  1  0  0  0  0
  6  1  1  0  0  0  0
  7  1  1  0  0  0  0
  3  2  1  0  0  0  0
  8  2  1  0  0  0  0
  9  2  1  0  0  0  0
  4  3  1  0  0  0  0
 10  3  1  0  0  0  0
 11  3  1  0  0  0  0
 12  4  1  0  0  0  0
 13  4  1  0  0  0  0
 14  4  1  0  0  0  0
M  END
>  <INPUT>
DTXSID0047583

>  <FOUND_BY>
DSSTox_Substance_Id

>  <DTXSID>
DTXSID0047583

>  <PREFERRED_NAME>
Nonafluoro-1-iodobutane

>  <CASRN>
423-39-2

>  <INCHIKEY>
PGRFXXCKHGIFSV-UHFFFAOYSA-N

>  <IUPAC_NAME>
1,1,1,2,2,3,3,4,4-Nonafluoro-4-iodobutane

>  <SMILES>
FC(F)(F)C(F)(F)C(F)(F)C(F)(F)I

>  <INCHI_STRING>
InChI=1S/C4F9I/c5-1(6,3(9,10)11)2(7,8)4(12,13)14


>  <MOLECULAR_FORMULA>
C4F9I

>  <AVERAGE_MASS>
345.934

>  <MONOISOTOPIC_MASS>
345.8901

>  <MOL_FILE>
MOL_FILE

$$$$

  -INDIGO-02112615072D

 10  9  0  0  0  0  0  0  0  0999 V2000
    2.3112   -1.3345    0.0000 C   0  0  0  0  0  0  0  0  0  0  0  0
    0.9769   -0.5658    0.0000 F   0  0  0  0  0  0  0  0  0  0  0  0
    3.0798    0.0000    0.0000 F   0  0  0  0  0  0  0  0  0  0  0  0
    3.6457   -2.1031    0.0000 F   0  0  0  0  0  0  0  0  0  0  0  0
    1.5426   -2.6688    0.0000 C   0  0  0  0  0  0  0  0  0  0  0  0
    0.0000   -2.6688    0.0000 O   0  0  0  0  0  0  0  0  0  0  0  0
    2.3112   -4.0033    0.0000 C   0  0  0  0  0  0  0  0  0  0  0  0
    3.6457   -3.2347    0.0000 F   0  0  0  0  0  0  0  0  0  0  0  0
    3.0798   -5.3378    0.0000 F   0  0  0  0  0  0  0  0  0  0  0  0
    0.9769   -4.7719    0.0000 F   0  0  0  0  0  0  0  0  0  0  0  0
  1  2  1  0  0  0  0
  1  3  1  0  0  0  0
  1  4  1  0  0  0  0
  1  5  1  0  0  0  0
  5  6  1  0  0  0  0
  5  7  1  0  0  0  0
  7  8  1  0  0  0  0
  7  9  1  0  0  0  0
  7 10  1  0  0  0  0
M  END
>  <INPUT>
DTXSID1022134

>  <FOUND_BY>
DSSTox_Substance_Id

>  <DTXSID>
DTXSID1022134

>  <PREFERRED_NAME>
2H-Perfluoro-2-propanol

>  <CASRN>
920-66-1

>  <INCHIKEY>
BYEAHWXPCBROCE-UHFFFAOYSA-N

>  <IUPAC_NAME>
1,1,1,3,3,3-Hexafluoropropan-2-ol

>  <SMILES>
OC(C(F)(F)F)C(F)(F)F

>  <INCHI_STRING>
InChI=1S/C3H2F6O/c4-2(5,6)1(10)3(7,8)9/h1,10H

>  <MOLECULAR_FORMULA>
C3H2F6O

>  <AVERAGE_MASS>
168.038

>  <MONOISOTOPIC_MASS>
168.000983662

>  <MOL_FILE>
MOL_FILE

$$$$

  -INDIGO-02112615072D

 18 17  0  0  0  0  0  0  0  0999 V2000
    5.2407   -0.7700    0.0000 S   0  0  0  0  0  0  0  0  0  0  0  0
    5.8044    1.3337    0.0000 F   0  0  0  0  0  0  0  0  0  0  0  0
    7.3444   -1.3337    0.0000 F   0  0  0  0  0  0  0  0  0  0  0  0
    7.1381    2.1037    0.0000 F   0  0  0  0  0  0  0  0  0  0  0  0
    8.6781   -0.5637    0.0000 F   0  0  0  0  0  0  0  0  0  0  0  0
   11.3456    2.1037    0.0000 F   0  0  0  0  0  0  0  0  0  0  0  0
    9.8056   -0.5637    0.0000 F   0  0  0  0  0  0  0  0  0  0  0  0
   13.2429   -0.7700    0.0000 F   0  0  0  0  0  0  0  0  0  0  0  0
   12.6793    1.3337    0.0000 F   0  0  0  0  0  0  0  0  0  0  0  0
   11.1391   -1.3337    0.0000 F   0  0  0  0  0  0  0  0  0  0  0  0
    9.2417    1.5400    0.0000 O   0  0  0  0  0  0  0  0  0  0  0  0
    3.9069   -1.5400    0.0000 O   0  0  0  0  0  0  0  0  0  0  0  0
    4.4707    0.5637    0.0000 O   0  0  0  0  0  0  0  0  0  0  0  0
    6.0107   -2.1037    0.0000 O   0  0  0  0  0  0  0  0  0  0  0  0
    6.5744    0.0000    0.0000 C   0  0  0  0  0  0  0  0  0  0  0  0
    7.9081    0.7700    0.0000 C   0  0  0  0  0  0  0  0  0  0  0  0
   10.5756    0.7700    0.0000 C   0  0  0  0  0  0  0  0  0  0  0  0
   11.9091    0.0000    0.0000 C   0  0  0  0  0  0  0  0  0  0  0  0
  1 12  1  0  0  0  0
  1 13  2  0  0  0  0
  1 14  2  0  0  0  0
  1 15  1  0  0  0  0
  2 15  1  0  0  0  0
  3 15  1  0  0  0  0
  4 16  1  0  0  0  0
  5 16  1  0  0  0  0
  6 17  1  0  0  0  0
  7 17  1  0  0  0  0
  8 18  1  0  0  0  0
  9 18  1  0  0  0  0
 10 18  1  0  0  0  0
 11 16  1  0  0  0  0
 11 17  1  0  0  0  0
 15 16  1  0  0  0  0
 17 18  1  0  0  0  0
M  END
>  <INPUT>
DTXSID50379814

>  <FOUND_BY>
DSSTox_Substance_Id

>  <DTXSID>
DTXSID50379814

>  <PREFERRED_NAME>
Perfluoro-2-ethoxyethanesulfonic acid

>  <CASRN>
113507-82-7

>  <INCHIKEY>
RJGUAQKOHAABLK-UHFFFAOYSA-N

>  <IUPAC_NAME>
1,1,2,2-Tetrafluoro-2-(pentafluoroethoxy)ethane-1-sulfonic acid

>  <SMILES>
OS(=O)(=O)C(F)(F)C(F)(F)OC(F)(F)C(F)(F)F

>  <INCHI_STRING>
InChI=1S/C4HF9O4S/c5-1(6,7)2(8,9)17-3(10,11)4(12,13)18(14,15)16/h(H,14,15,16)

>  <MOLECULAR_FORMULA>
C4HF9O4S

>  <AVERAGE_MASS>
316.09

>  <MONOISOTOPIC_MASS>
315.945183153

>  <MOL_FILE>
MOL_FILE

$$$$

  -INDIGO-02112615072D

 13 12  0  0  0  0  0  0  0  0999 V2000
    2.8737   -2.3100    0.0000 O   0  0  0  0  0  0  0  0  0  0  0  0
    1.5400   -1.5400    0.0000 C   0  0  0  0  0  0  0  0  0  0  0  0
    0.2063   -2.3100    0.0000 O   0  0  0  0  0  0  0  0  0  0  0  0
    0.2063   -3.8500    0.0000 C   0  0  0  0  0  0  0  0  0  0  0  0
    1.5400   -4.6200    0.0000 O   0  0  0  0  0  0  0  0  0  0  0  0
   -1.1274   -4.6200    0.0000 C   0  0  0  0  0  0  0  0  0  0  0  0
   -2.4610   -5.3900    0.0000 F   0  0  0  0  0  0  0  0  0  0  0  0
   -0.3574   -5.9537    0.0000 F   0  0  0  0  0  0  0  0  0  0  0  0
   -1.8974   -3.2863    0.0000 F   0  0  0  0  0  0  0  0  0  0  0  0
    1.5400    0.0000    0.0000 C   0  0  0  0  0  0  0  0  0  0  0  0
    1.5400    1.5400    0.0000 F   0  0  0  0  0  0  0  0  0  0  0  0
    3.0800    0.0000    0.0000 F   0  0  0  0  0  0  0  0  0  0  0  0
    0.0000    0.0000    0.0000 F   0  0  0  0  0  0  0  0  0  0  0  0
  1  2  2  0  0  0  0
  2  3  1  0  0  0  0
  3  4  1  0  0  0  0
  4  5  2  0  0  0  0
  4  6  1  0  0  0  0
  6  7  1  0  0  0  0
  6  8  1  0  0  0  0
  6  9  1  0  0  0  0
  2 10  1  0  0  0  0
 10 11  1  0  0  0  0
 10 12  1  0  0  0  0
 10 13  1  0  0  0  0
M  END
>  <INPUT>
DTXSID90861920

>  <FOUND_BY>
DSSTox_Substance_Id

>  <DTXSID>
DTXSID90861920

>  <PREFERRED_NAME>
Trifluoroacetic anhydride

>  <CASRN>
407-25-0

>  <INCHIKEY>
QAEDZJGFFMLHHQ-UHFFFAOYSA-N

>  <IUPAC_NAME>
Trifluoroacetic anhydride

>  <SMILES>
FC(F)(F)C(=O)OC(=O)C(F)(F)F

>  <INCHI_STRING>
InChI=1S/C4F6O3/c5-3(6,7)1(11)13-2(12)4(8,9)10

>  <MOLECULAR_FORMULA>
C4F6O3

>  <AVERAGE_MASS>
210.031

>  <MONOISOTOPIC_MASS>
209.975162838

>  <MOL_FILE>
MOL_FILE

$$$$

  -INDIGO-02112615072D

 27 26  0  0  0  0  0  0  0  0999 V2000
    9.8056    0.9486    0.0000 F   0  0  0  0  0  0  0  0  0  0  0  0
   11.3456   -1.7186    0.0000 F   0  0  0  0  0  0  0  0  0  0  0  0
   11.1391    1.7186    0.0000 F   0  0  0  0  0  0  0  0  0  0  0  0
   12.6793   -0.9486    0.0000 F   0  0  0  0  0  0  0  0  0  0  0  0
    8.4717    0.1786    0.0000 F   0  0  0  0  0  0  0  0  0  0  0  0
   10.0117   -2.4886    0.0000 F   0  0  0  0  0  0  0  0  0  0  0  0
   14.0129   -0.1786    0.0000 F   0  0  0  0  0  0  0  0  0  0  0  0
   12.4729    2.4886    0.0000 F   0  0  0  0  0  0  0  0  0  0  0  0
    7.1381   -0.5914    0.0000 F   0  0  0  0  0  0  0  0  0  0  0  0
    8.6781   -3.2586    0.0000 F   0  0  0  0  0  0  0  0  0  0  0  0
    5.8044   -1.3614    0.0000 F   0  0  0  0  0  0  0  0  0  0  0  0
    7.3444   -4.0286    0.0000 F   0  0  0  0  0  0  0  0  0  0  0  0
   15.3466    0.5914    0.0000 F   0  0  0  0  0  0  0  0  0  0  0  0
   13.8066    3.2586    0.0000 F   0  0  0  0  0  0  0  0  0  0  0  0
   17.2441    3.4651    0.0000 F   0  0  0  0  0  0  0  0  0  0  0  0
   16.6803    1.3614    0.0000 F   0  0  0  0  0  0  0  0  0  0  0  0
   15.1403    4.0286    0.0000 F   0  0  0  0  0  0  0  0  0  0  0  0
    3.9069   -2.6951    0.0000 N   0  0  0  0  0  0  0  0  0  0  0  0
   10.5756   -0.3851    0.0000 C   0  0  0  0  0  0  0  0  0  0  0  0
   11.9091    0.3851    0.0000 C   0  0  0  0  0  0  0  0  0  0  0  0
    9.2417   -1.1551    0.0000 C   0  0  0  0  0  0  0  0  0  0  0  0
   13.2429    1.1551    0.0000 C   0  0  0  0  0  0  0  0  0  0  0  0
    7.9081   -1.9251    0.0000 C   0  0  0  0  0  0  0  0  0  0  0  0
    6.5744   -2.6951    0.0000 C   0  0  0  0  0  0  0  0  0  0  0  0
   14.5766    1.9251    0.0000 C   0  0  0  0  0  0  0  0  0  0  0  0
    5.2407   -3.4651    0.0000 C   0  0  0  0  0  0  0  0  0  0  0  0
   15.9103    2.6951    0.0000 C   0  0  0  0  0  0  0  0  0  0  0  0
  1 19  1  0  0  0  0
  2 19  1  0  0  0  0
  3 20  1  0  0  0  0
  4 20  1  0  0  0  0
  5 21  1  0  0  0  0
  6 21  1  0  0  0  0
  7 22  1  0  0  0  0
  8 22  1  0  0  0  0
  9 23  1  0  0  0  0
 10 23  1  0  0  0  0
 11 24  1  0  0  0  0
 12 24  1  0  0  0  0
 13 25  1  0  0  0  0
 14 25  1  0  0  0  0
 15 27  1  0  0  0  0
 16 27  1  0  0  0  0
 17 27  1  0  0  0  0
 18 26  1  0  0  0  0
 19 20  1  0  0  0  0
 19 21  1  0  0  0  0
 20 22  1  0  0  0  0
 21 23  1  0  0  0  0
 22 25  1  0  0  0  0
 23 24  1  0  0  0  0
 24 26  1  0  0  0  0
 25 27  1  0  0  0  0
M  END
>  <INPUT>
DTXSID50379930

>  <FOUND_BY>
DSSTox_Substance_Id

>  <DTXSID>
DTXSID50379930

>  <PREFERRED_NAME>
1H,1H-Perfluorononylamine

>  <CASRN>
355-47-5

>  <INCHIKEY>
IHVFAVFXCUPMEN-UHFFFAOYSA-N

>  <IUPAC_NAME>
2,2,3,3,4,4,5,5,6,6,7,7,8,8,9,9,9-Heptadecafluorononan-1-amine

>  <SMILES>
NCC(F)(F)C(F)(F)C(F)(F)C(F)(F)C(F)(F)C(F)(F)C(F)(F)C(F)(F)F

>  <INCHI_STRING>
InChI=1S/C9H4F17N/c10-2(11,1-27)3(12,13)4(14,15)5(16,17)6(18,19)7(20,21)8(22,23)9(24,25)26/h1,27H2

>  <MOLECULAR_FORMULA>
C9H4F17N

>  <AVERAGE_MASS>
449.111

>  <MONOISOTOPIC_MASS>
449.007227904

>  <MOL_FILE>
MOL_FILE

$$$$

  -INDIGO-02112615072D

 23 23  0  0  0  0  0  0  0  0999 V2000
    5.1837    0.2065    0.0000 F   0  0  0  0  0  0  0  0  0  0  0  0
    3.0800   -1.8973    0.0000 F   0  0  0  0  0  0  0  0  0  0  0  0
    8.8275   -1.8973    0.0000 F   0  0  0  0  0  0  0  0  0  0  0  0
    8.0575   -0.5637    0.0000 F   0  0  0  0  0  0  0  0  0  0  0  0
    3.8500   -0.5637    0.0000 F   0  0  0  0  0  0  0  0  0  0  0  0
    8.0575   -4.7712    0.0000 F   0  0  0  0  0  0  0  0  0  0  0  0
    8.8275   -3.4373    0.0000 F   0  0  0  0  0  0  0  0  0  0  0  0
    3.8500   -4.7712    0.0000 F   0  0  0  0  0  0  0  0  0  0  0  0
    3.0800   -3.4373    0.0000 F   0  0  0  0  0  0  0  0  0  0  0  0
    5.1837   -5.5412    0.0000 F   0  0  0  0  0  0  0  0  0  0  0  0
    6.7237   -5.5412    0.0000 F   0  0  0  0  0  0  0  0  0  0  0  0
    5.9537    1.5400    0.0000 O   0  0  0  0  0  0  0  0  0  0  0  0
    8.2637    2.8737    0.0000 O   0  0  0  0  0  0  0  0  0  0  0  0
    5.9537   -1.1275    0.0000 C   0  0  0  0  0  0  0  0  0  0  0  0
    4.6202   -1.8973    0.0000 C   0  0  0  0  0  0  0  0  0  0  0  0
    7.2875   -1.8973    0.0000 C   0  0  0  0  0  0  0  0  0  0  0  0
    7.2875   -3.4373    0.0000 C   0  0  0  0  0  0  0  0  0  0  0  0
    4.6202   -3.4373    0.0000 C   0  0  0  0  0  0  0  0  0  0  0  0
    5.9537   -4.2073    0.0000 C   0  0  0  0  0  0  0  0  0  0  0  0
    6.7237    0.2065    0.0000 C   0  0  0  0  0  0  0  0  0  0  0  0
    6.7237    2.8737    0.0000 C   0  0  0  0  0  0  0  0  0  0  0  0
    5.9537    4.2073    0.0000 C   0  0  0  0  0  0  0  0  0  0  0  0
    6.7237    5.5412    0.0000 C   0  0  0  0  0  0  0  0  0  0  0  0
  1 14  1  0  0  0  0
  2 15  1  0  0  0  0
  3 16  1  0  0  0  0
  4 16  1  0  0  0  0
  5 15  1  0  0  0  0
  6 17  1  0  0  0  0
  7 17  1  0  0  0  0
  8 18  1  0  0  0  0
  9 18  1  0  0  0  0
 10 19  1  0  0  0  0
 11 19  1  0  0  0  0
 12 20  1  0  0  0  0
 12 21  1  0  0  0  0
 13 21  2  0  0  0  0
 14 15  1  0  0  0  0
 14 16  1  0  0  0  0
 14 20  1  0  0  0  0
 15 18  1  0  0  0  0
 16 17  1  0  0  0  0
 17 19  1  0  0  0  0
 18 19  1  0  0  0  0
 21 22  1  0  0  0  0
 22 23  2  0  0  0  0
M  END
>  <INPUT>
DTXSID40379782

>  <FOUND_BY>
DSSTox_Substance_Id

>  <DTXSID>
DTXSID40379782

>  <PREFERRED_NAME>
(Perfluorocyclohexyl)methyl prop-2-enoate

>  <CASRN>
40677-94-9

>  <INCHIKEY>
OZGWOALFBHODRB-UHFFFAOYSA-N

>  <IUPAC_NAME>
(Undecafluorocyclohexyl)methyl prop-2-enoate

>  <SMILES>
FC1(F)C(F)(F)C(F)(F)C(F)(COC(=O)C=C)C(F)(F)C1(F)F

>  <INCHI_STRING>
InChI=1S/C10H5F11O2/c1-2-4(22)23-3-5(11)6(12,13)8(16,17)10(20,21)9(18,19)7(5,14)15/h2H,1,3H2

>  <MOLECULAR_FORMULA>
C10H5F11O2

>  <AVERAGE_MASS>
366.13

>  <MONOISOTOPIC_MASS>
366.011389194

>  <MOL_FILE>
MOL_FILE

$$$$

  -INDIGO-02112615072D

  0  0  0  0  0  0  0  0  0  0999 V2000
M  END
>  <INPUT>
DTXSID80897718

>  <FOUND_BY>
DSSTox_Substance_Id

>  <DTXSID>
DTXSID80897718

>  <PREFERRED_NAME>
Perfluoroheptanes (branched and linear)

>  <CASRN>
NOCAS_897718

>  <INCHIKEY>
N/A

>  <IUPAC_NAME>
N/A

>  <SMILES>
N/A

>  <INCHI_STRING>
N/A

>  <MOLECULAR_FORMULA>
N/A

>  <AVERAGE_MASS>
N/A

>  <MONOISOTOPIC_MASS>
N/A

>  <MOL_FILE>
MOL_FILE

$$$$

  -INDIGO-02112615072D

 19 18  0  0  0  0  0  0  0  0999 V2000
    6.3112    1.6154    0.0000 F   0  0  0  0  0  0  0  0  0  0  0  0
    7.8512   -1.0519    0.0000 F   0  0  0  0  0  0  0  0  0  0  0  0
    4.9775    0.8454    0.0000 F   0  0  0  0  0  0  0  0  0  0  0  0
    6.5175   -1.8219    0.0000 F   0  0  0  0  0  0  0  0  0  0  0  0
    3.0800   -2.0281    0.0000 F   0  0  0  0  0  0  0  0  0  0  0  0
    3.6437    0.0754    0.0000 F   0  0  0  0  0  0  0  0  0  0  0  0
    5.1837   -2.5919    0.0000 F   0  0  0  0  0  0  0  0  0  0  0  0
   13.7497   -0.4881    0.0000 F   0  0  0  0  0  0  0  0  0  0  0  0
   13.1861    1.6154    0.0000 F   0  0  0  0  0  0  0  0  0  0  0  0
   11.6461   -1.0519    0.0000 F   0  0  0  0  0  0  0  0  0  0  0  0
    8.4149    2.5919    0.0000 O   0  0  0  0  0  0  0  0  0  0  0  0
   11.0824    2.5919    0.0000 O   0  0  0  0  0  0  0  0  0  0  0  0
    7.0812    0.2819    0.0000 C   0  0  0  0  0  0  0  0  0  0  0  0
    5.7475   -0.4881    0.0000 C   0  0  0  0  0  0  0  0  0  0  0  0
    8.4149    1.0519    0.0000 C   0  0  0  0  0  0  0  0  0  0  0  0
    9.7485    0.2819    0.0000 C   0  0  0  0  0  0  0  0  0  0  0  0
    4.4137   -1.2581    0.0000 C   0  0  0  0  0  0  0  0  0  0  0  0
   11.0824    1.0519    0.0000 C   0  0  0  0  0  0  0  0  0  0  0  0
   12.4161    0.2819    0.0000 C   0  0  0  0  0  0  0  0  0  0  0  0
  1 13  1  0  0  0  0
  2 13  1  0  0  0  0
  3 14  1  0  0  0  0
  4 14  1  0  0  0  0
  5 17  1  0  0  0  0
  6 17  1  0  0  0  0
  7 17  1  0  0  0  0
  8 19  1  0  0  0  0
  9 19  1  0  0  0  0
 10 19  1  0  0  0  0
 11 15  2  0  0  0  0
 12 18  2  0  0  0  0
 13 14  1  0  0  0  0
 13 15  1  0  0  0  0
 14 17  1  0  0  0  0
 15 16  1  0  0  0  0
 16 18  1  0  0  0  0
 18 19  1  0  0  0  0
M  END
>  <INPUT>
DTXSID80329968

>  <FOUND_BY>
DSSTox_Substance_Id

>  <DTXSID>
DTXSID80329968

>  <PREFERRED_NAME>
3H,3H-Perfluoroheptane-2,4-dione

>  <CASRN>
20583-66-8

>  <INCHIKEY>
SUORUQZBFOQDGX-UHFFFAOYSA-N

>  <IUPAC_NAME>
1,1,1,5,5,6,6,7,7,7-Decafluoroheptane-2,4-dione

>  <SMILES>
FC(F)(F)C(=O)CC(=O)C(F)(F)C(F)(F)C(F)(F)F

>  <INCHI_STRING>
InChI=1S/C7H2F10O2/c8-4(9,6(13,14)7(15,16)17)2(18)1-3(19)5(10,11)12/h1H2

>  <MOLECULAR_FORMULA>
C7H2F10O2

>  <AVERAGE_MASS>
308.075

>  <MONOISOTOPIC_MASS>
307.989510934

>  <MOL_FILE>
MOL_FILE

$$$$

  -INDIGO-02112615072D

 24 23  0  0  0  0  0  0  0  0999 V2000
    8.9785    1.4368    0.0000 F   0  0  0  0  0  0  0  0  0  0  0  0
   10.5187   -1.2305    0.0000 F   0  0  0  0  0  0  0  0  0  0  0  0
   10.3124    2.2070    0.0000 F   0  0  0  0  0  0  0  0  0  0  0  0
   11.8524   -0.4605    0.0000 F   0  0  0  0  0  0  0  0  0  0  0  0
    7.6449    0.6668    0.0000 F   0  0  0  0  0  0  0  0  0  0  0  0
    9.1849   -2.0005    0.0000 F   0  0  0  0  0  0  0  0  0  0  0  0
   13.1861    0.3095    0.0000 F   0  0  0  0  0  0  0  0  0  0  0  0
   11.6461    2.9770    0.0000 F   0  0  0  0  0  0  0  0  0  0  0  0
    6.3112   -0.1032    0.0000 F   0  0  0  0  0  0  0  0  0  0  0  0
    7.8512   -2.7705    0.0000 F   0  0  0  0  0  0  0  0  0  0  0  0
   15.0834    3.1832    0.0000 F   0  0  0  0  0  0  0  0  0  0  0  0
   14.5197    1.0795    0.0000 F   0  0  0  0  0  0  0  0  0  0  0  0
   12.9797    3.7470    0.0000 F   0  0  0  0  0  0  0  0  0  0  0  0
    5.7475   -3.7470    0.0000 F   0  0  0  0  0  0  0  0  0  0  0  0
    3.0800   -2.2070    0.0000 F   0  0  0  0  0  0  0  0  0  0  0  0
    4.4137    0.1032    0.0000 F   0  0  0  0  0  0  0  0  0  0  0  0
    9.7485    0.1032    0.0000 C   0  0  0  0  0  0  0  0  0  0  0  0
   11.0824    0.8732    0.0000 C   0  0  0  0  0  0  0  0  0  0  0  0
    8.4149   -0.6668    0.0000 C   0  0  0  0  0  0  0  0  0  0  0  0
   12.4161    1.6432    0.0000 C   0  0  0  0  0  0  0  0  0  0  0  0
    7.0812   -1.4368    0.0000 C   0  0  0  0  0  0  0  0  0  0  0  0
   13.7497    2.4132    0.0000 C   0  0  0  0  0  0  0  0  0  0  0  0
    5.7475   -2.2070    0.0000 C   0  0  0  0  0  0  0  0  0  0  0  0
    4.4137   -1.4368    0.0000 C   0  0  0  0  0  0  0  0  0  0  0  0
  1 17  1  0  0  0  0
  2 17  1  0  0  0  0
  3 18  1  0  0  0  0
  4 18  1  0  0  0  0
  5 19  1  0  0  0  0
  6 19  1  0  0  0  0
  7 20  1  0  0  0  0
  8 20  1  0  0  0  0
  9 21  1  0  0  0  0
 10 21  1  0  0  0  0
 11 22  1  0  0  0  0
 12 22  1  0  0  0  0
 13 22  1  0  0  0  0
 14 23  1  0  0  0  0
 15 24  1  0  0  0  0
 16 24  1  0  0  0  0
 17 18  1  0  0  0  0
 17 19  1  0  0  0  0
 18 20  1  0  0  0  0
 19 21  1  0  0  0  0
 20 22  1  0  0  0  0
 21 23  1  0  0  0  0
 23 24  2  0  0  0  0
M  END
>  <INPUT>
DTXSID40204489

>  <FOUND_BY>
DSSTox_Substance_Id

>  <DTXSID>
DTXSID40204489

>  <PREFERRED_NAME>
Perfluorooct-1-ene

>  <CASRN>
559-14-8

>  <INCHIKEY>
YCBPKOZNGFQMPB-UHFFFAOYSA-N

>  <IUPAC_NAME>
1,1,2,3,3,4,4,5,5,6,6,7,7,8,8,8-Hexadecafluorooct-1-ene

>  <SMILES>
FC(F)=C(F)C(F)(F)C(F)(F)C(F)(F)C(F)(F)C(F)(F)C(F)(F)F

>  <INCHI_STRING>
InChI=1S/C8F16/c9-1(2(10)11)3(12,13)4(14,15)5(16,17)6(18,19)7(20,21)8(22,23)24

>  <MOLECULAR_FORMULA>
C8F16

>  <AVERAGE_MASS>
400.062

>  <MONOISOTOPIC_MASS>
399.974450608

>  <MOL_FILE>
MOL_FILE

$$$$

  -INDIGO-02112615072D

 12 11  0  0  0  0  0  0  0  0999 V2000
    2.8737   -3.8500    0.0000 O   0  0  0  0  0  0  0  0  0  0  0  0
    1.5400   -3.0800    0.0000 C   0  0  0  0  0  0  0  0  0  0  0  0
    0.2063   -3.8500    0.0000 O   0  0  0  0  0  0  0  0  0  0  0  0
    0.2063   -5.3900    0.0000 C   0  0  0  0  0  0  0  0  0  0  0  0
   -1.1273   -6.1600    0.0000 C   0  0  0  0  0  0  0  0  0  0  0  0
    1.5400   -1.5400    0.0000 C   0  0  0  0  0  0  0  0  0  0  0  0
    3.0800   -1.5400    0.0000 F   0  0  0  0  0  0  0  0  0  0  0  0
    0.0000   -1.5400    0.0000 F   0  0  0  0  0  0  0  0  0  0  0  0
    1.5400    0.0000    0.0000 C   0  0  0  0  0  0  0  0  0  0  0  0
    1.5400    1.5400    0.0000 F   0  0  0  0  0  0  0  0  0  0  0  0
    3.0800    0.0000    0.0000 F   0  0  0  0  0  0  0  0  0  0  0  0
    0.0000    0.0000    0.0000 F   0  0  0  0  0  0  0  0  0  0  0  0
  1  2  2  0  0  0  0
  2  3  1  0  0  0  0
  3  4  1  0  0  0  0
  4  5  1  0  0  0  0
  2  6  1  0  0  0  0
  6  7  1  0  0  0  0
  6  8  1  0  0  0  0
  6  9  1  0  0  0  0
  9 10  1  0  0  0  0
  9 11  1  0  0  0  0
  9 12  1  0  0  0  0
M  END
>  <INPUT>
DTXSID2059980

>  <FOUND_BY>
DSSTox_Substance_Id

>  <DTXSID>
DTXSID2059980

>  <PREFERRED_NAME>
Ethyl perfluoropropionate

>  <CASRN>
426-65-3

>  <INCHIKEY>
DBOFMRQAMAZKQY-UHFFFAOYSA-N

>  <IUPAC_NAME>
Ethyl pentafluoropropanoate

>  <SMILES>
CCOC(=O)C(F)(F)C(F)(F)F

>  <INCHI_STRING>
InChI=1S/C5H5F5O2/c1-2-12-3(11)4(6,7)5(8,9)10/h2H2,1H3

>  <MOLECULAR_FORMULA>
C5H5F5O2

>  <AVERAGE_MASS>
192.085

>  <MONOISOTOPIC_MASS>
192.020970216

>  <MOL_FILE>
MOL_FILE

$$$$

  -INDIGO-02112615072D

 11 10  0  0  0  0  0  0  0  0999 V2000
    8.4149    1.6432    0.0000 F   0  0  0  0  0  0  0  0  0  0  0  0
    7.8512   -0.4605    0.0000 F   0  0  0  0  0  0  0  0  0  0  0  0
    6.3112    2.2070    0.0000 F   0  0  0  0  0  0  0  0  0  0  0  0
    3.0800    1.6432    0.0000 F   0  0  0  0  0  0  0  0  0  0  0  0
    3.6437   -0.4605    0.0000 F   0  0  0  0  0  0  0  0  0  0  0  0
    5.1837    2.2070    0.0000 F   0  0  0  0  0  0  0  0  0  0  0  0
    5.7475   -1.4368    0.0000 O   0  0  0  0  0  0  0  0  0  0  0  0
    5.7475    0.1032    0.0000 C   0  0  0  0  0  0  0  0  0  0  0  0
    7.0812    0.8732    0.0000 C   0  0  0  0  0  0  0  0  0  0  0  0
    4.4137    0.8732    0.0000 C   0  0  0  0  0  0  0  0  0  0  0  0
    4.4137   -2.2070    0.0000 C   0  0  0  0  0  0  0  0  0  0  0  0
  1  9  1  0  0  0  0
  2  9  1  0  0  0  0
  3  9  1  0  0  0  0
  4 10  1  0  0  0  0
  5 10  1  0  0  0  0
  6 10  1  0  0  0  0
  7  8  1  0  0  0  0
  7 11  1  0  0  0  0
  8  9  1  0  0  0  0
  8 10  1  0  0  0  0
M  END
>  <INPUT>
DTXSID80157187

>  <FOUND_BY>
DSSTox_Substance_Id

>  <DTXSID>
DTXSID80157187

>  <PREFERRED_NAME>
Hexafluoroisopropyl methyl ether

>  <CASRN>
13171-18-1

>  <INCHIKEY>
VNXYDFNVQBICRO-UHFFFAOYSA-N

>  <IUPAC_NAME>
1,1,1,3,3,3-Hexafluoro-2-methoxypropane

>  <SMILES>
COC(C(F)(F)F)C(F)(F)F

>  <INCHI_STRING>
InChI=1S/C4H4F6O/c1-11-2(3(5,6)7)4(8,9)10/h2H,1H3

>  <MOLECULAR_FORMULA>
C4H4F6O

>  <AVERAGE_MASS>
182.065

>  <MONOISOTOPIC_MASS>
182.016633727

>  <MOL_FILE>
MOL_FILE

$$$$

  -INDIGO-02112615072D

 14 13  0  0  0  0  0  0  0  0999 V2000
    1.5400   -6.1600    0.0000 F   0  0  0  0  0  0  0  0  0  0  0  0
    1.5400   -4.6200    0.0000 C   0  0  0  0  0  0  0  0  0  0  0  0
    3.0800   -4.6200    0.0000 F   0  0  0  0  0  0  0  0  0  0  0  0
    0.0000   -4.6200    0.0000 F   0  0  0  0  0  0  0  0  0  0  0  0
    1.5400   -3.0800    0.0000 C   0  0  0  0  0  0  0  0  0  0  0  0
    3.0800   -3.0800    0.0000 F   0  0  0  0  0  0  0  0  0  0  0  0
    0.0000   -3.0800    0.0000 Cl  0  0  0  0  0  0  0  0  0  0  0  0
    1.5400   -1.5400    0.0000 C   0  0  0  0  0  0  0  0  0  0  0  0
    3.0800   -1.5400    0.0000 F   0  0  0  0  0  0  0  0  0  0  0  0
    0.0000   -1.5400    0.0000 Cl  0  0  0  0  0  0  0  0  0  0  0  0
    1.5400    0.0000    0.0000 C   0  0  0  0  0  0  0  0  0  0  0  0
    1.5400    1.5400    0.0000 F   0  0  0  0  0  0  0  0  0  0  0  0
    3.0800    0.0000    0.0000 F   0  0  0  0  0  0  0  0  0  0  0  0
    0.0000    0.0000    0.0000 F   0  0  0  0  0  0  0  0  0  0  0  0
  1  2  1  0  0  0  0
  2  3  1  0  0  0  0
  2  4  1  0  0  0  0
  2  5  1  0  0  0  0
  5  6  1  0  0  0  0
  5  7  1  0  0  0  0
  5  8  1  0  0  0  0
  8  9  1  0  0  0  0
  8 10  1  0  0  0  0
  8 11  1  0  0  0  0
 11 12  1  0  0  0  0
 11 13  1  0  0  0  0
 11 14  1  0  0  0  0
M  END
>  <INPUT>
DTXSID90870512

>  <FOUND_BY>
DSSTox_Substance_Id

>  <DTXSID>
DTXSID90870512

>  <PREFERRED_NAME>
2,3-Dichlorooctafluorobutane

>  <CASRN>
355-20-4

>  <INCHIKEY>
LXANZHXWGZWFAC-UHFFFAOYNA-N

>  <IUPAC_NAME>
2,3-Dichloro-1,1,1,2,3,4,4,4-octafluorobutane

>  <SMILES>
FC(F)(F)C(F)(Cl)C(F)(Cl)C(F)(F)F

>  <INCHI_STRING>
InChI=1S/C4Cl2F8/c5-1(7,3(9,10)11)2(6,8)4(12,13)14

>  <MOLECULAR_FORMULA>
C4Cl2F8

>  <AVERAGE_MASS>
270.93

>  <MONOISOTOPIC_MASS>
269.9249307

>  <MOL_FILE>
MOL_FILE

$$$$

  -INDIGO-02112615072D

 30 29  0  0  0  0  0  0  0  0999 V2000
    9.8056    0.9486    0.0000 F   0  0  0  0  0  0  0  0  0  0  0  0
   12.6793   -0.9486    0.0000 F   0  0  0  0  0  0  0  0  0  0  0  0
   11.1391    1.7186    0.0000 F   0  0  0  0  0  0  0  0  0  0  0  0
   11.3456   -1.7186    0.0000 F   0  0  0  0  0  0  0  0  0  0  0  0
    8.4717    0.1786    0.0000 F   0  0  0  0  0  0  0  0  0  0  0  0
   10.0117   -2.4886    0.0000 F   0  0  0  0  0  0  0  0  0  0  0  0
   14.0129   -0.1786    0.0000 F   0  0  0  0  0  0  0  0  0  0  0  0
   12.4729    2.4886    0.0000 F   0  0  0  0  0  0  0  0  0  0  0  0
    7.1381   -0.5914    0.0000 F   0  0  0  0  0  0  0  0  0  0  0  0
   15.3466    0.5914    0.0000 F   0  0  0  0  0  0  0  0  0  0  0  0
   13.8066    3.2586    0.0000 F   0  0  0  0  0  0  0  0  0  0  0  0
    8.6781   -3.2586    0.0000 F   0  0  0  0  0  0  0  0  0  0  0  0
    5.8044   -1.3614    0.0000 F   0  0  0  0  0  0  0  0  0  0  0  0
    7.3444   -4.0286    0.0000 F   0  0  0  0  0  0  0  0  0  0  0  0
   16.6803    1.3614    0.0000 F   0  0  0  0  0  0  0  0  0  0  0  0
   15.1403    4.0286    0.0000 F   0  0  0  0  0  0  0  0  0  0  0  0
    3.9069   -2.6951    0.0000 O   0  0  0  0  0  0  0  0  0  0  0  0
   18.5778    2.6951    0.0000 O   0  0  0  0  0  0  0  0  0  0  0  0
   17.2441    5.0051    0.0000 O   0  0  0  0  0  0  0  0  0  0  0  0
    5.2407   -5.0051    0.0000 O   0  0  0  0  0  0  0  0  0  0  0  0
   10.5756   -0.3851    0.0000 C   0  0  0  0  0  0  0  0  0  0  0  0
   11.9091    0.3851    0.0000 C   0  0  0  0  0  0  0  0  0  0  0  0
    9.2417   -1.1551    0.0000 C   0  0  0  0  0  0  0  0  0  0  0  0
   13.2429    1.1551    0.0000 C   0  0  0  0  0  0  0  0  0  0  0  0
    7.9081   -1.9251    0.0000 C   0  0  0  0  0  0  0  0  0  0  0  0
   14.5766    1.9251    0.0000 C   0  0  0  0  0  0  0  0  0  0  0  0
    6.5744   -2.6951    0.0000 C   0  0  0  0  0  0  0  0  0  0  0  0
   15.9103    2.6951    0.0000 C   0  0  0  0  0  0  0  0  0  0  0  0
    5.2407   -3.4651    0.0000 C   0  0  0  0  0  0  0  0  0  0  0  0
   17.2441    3.4651    0.0000 C   0  0  0  0  0  0  0  0  0  0  0  0
  1 21  1  0  0  0  0
  2 22  1  0  0  0  0
  3 22  1  0  0  0  0
  4 21  1  0  0  0  0
  5 23  1  0  0  0  0
  6 23  1  0  0  0  0
  7 24  1  0  0  0  0
  8 24  1  0  0  0  0
  9 25  1  0  0  0  0
 10 26  1  0  0  0  0
 11 26  1  0  0  0  0
 12 25  1  0  0  0  0
 13 27  1  0  0  0  0
 14 27  1  0  0  0  0
 15 28  1  0  0  0  0
 16 28  1  0  0  0  0
 17 29  1  0  0  0  0
 18 30  1  0  0  0  0
 19 30  2  0  0  0  0
 20 29  2  0  0  0  0
 21 22  1  0  0  0  0
 21 23  1  0  0  0  0
 22 24  1  0  0  0  0
 23 25  1  0  0  0  0
 24 26  1  0  0  0  0
 25 27  1  0  0  0  0
 26 28  1  0  0  0  0
 27 29  1  0  0  0  0
 28 30  1  0  0  0  0
M  END
>  <INPUT>
DTXSID50184728

>  <FOUND_BY>
DSSTox_Substance_Id

>  <DTXSID>
DTXSID50184728

>  <PREFERRED_NAME>
Perfluorodecanedioic acid

>  <CASRN>
307-78-8

>  <INCHIKEY>
YPCSMEGZIYWAAZ-UHFFFAOYSA-N

>  <IUPAC_NAME>
Hexadecafluorodecanedioic acid

>  <SMILES>
OC(=O)C(F)(F)C(F)(F)C(F)(F)C(F)(F)C(F)(F)C(F)(F)C(F)(F)C(F)(F)C(O)=O

>  <INCHI_STRING>
InChI=1S/C10H2F16O4/c11-3(12,1(27)28)5(15,16)7(19,20)9(23,24)10(25,26)8(21,22)6(17,18)4(13,14)2(29)30/h(H,27,28)(H,29,30)

>  <MOLECULAR_FORMULA>
C10H2F16O4

>  <AVERAGE_MASS>
490.096

>  <MONOISOTOPIC_MASS>
489.969759152

>  <MOL_FILE>
MOL_FILE

$$$$

  -INDIGO-02112615072D

 19 18  0  0  0  0  0  0  0  0999 V2000
    3.3475    3.0434    0.0000 F   0  0  0  0  0  0  0  0  0  0  0  0
    5.5171    3.2331    0.0000 F   0  0  0  0  0  0  0  0  0  0  0  0
    3.0800    1.5267    0.0000 F   0  0  0  0  0  0  0  0  0  0  0  0
    4.1670   -1.6038    0.0000 F   0  0  0  0  0  0  0  0  0  0  0  0
    3.6032    0.4999    0.0000 F   0  0  0  0  0  0  0  0  0  0  0  0
    5.7071   -1.6040    0.0000 F   0  0  0  0  0  0  0  0  0  0  0  0
    8.3744    2.6036    0.0000 F   0  0  0  0  0  0  0  0  0  0  0  0
    6.7732    3.3501    0.0000 F   0  0  0  0  0  0  0  0  0  0  0  0
    8.3744    1.0636    0.0000 F   0  0  0  0  0  0  0  0  0  0  0  0
    6.4770   -0.2701    0.0000 O   0  0  0  0  0  0  0  0  0  0  0  0
    9.1444   -0.2701    0.0000 O   0  0  0  0  0  0  0  0  0  0  0  0
    5.7070    1.0636    0.0000 C   0  0  0  0  0  0  0  0  0  0  0  0
    7.0407    1.8336    0.0000 C   0  0  0  0  0  0  0  0  0  0  0  0
    4.9370   -0.2701    0.0000 C   0  0  0  0  0  0  0  0  0  0  0  0
    4.5272    2.0535    0.0000 C   0  0  0  0  0  0  0  0  0  0  0  0
    7.8107   -2.5801    0.0000 C   0  0  0  0  0  0  0  0  0  0  0  0
    7.8107   -1.0401    0.0000 C   0  0  0  0  0  0  0  0  0  0  0  0
    9.1444   -3.3501    0.0000 C   0  0  0  0  0  0  0  0  0  0  0  0
    6.4770   -3.3501    0.0000 C   0  0  0  0  0  0  0  0  0  0  0  0
  1 15  1  0  0  0  0
  2 15  1  0  0  0  0
  3 15  1  0  0  0  0
  4 14  1  0  0  0  0
  5 14  1  0  0  0  0
  6 14  1  0  0  0  0
  7 13  1  0  0  0  0
  8 13  1  0  0  0  0
  9 13  1  0  0  0  0
 10 12  1  0  0  0  0
 10 17  1  0  0  0  0
 11 17  2  0  0  0  0
 12 13  1  0  0  0  0
 12 14  1  0  0  0  0
 12 15  1  0  0  0  0
 16 17  1  0  0  0  0
 16 18  1  0  0  0  0
 16 19  1  0  0  0  0
M  END
>  <INPUT>
DTXSID90660157

>  <FOUND_BY>
DSSTox_Substance_Id

>  <DTXSID>
DTXSID90660157

>  <PREFERRED_NAME>
Perfluoro-tert-butyl isobutyrate

>  <CASRN>
914637-43-7

>  <INCHIKEY>
SYZHJJUWVLPDLN-UHFFFAOYSA-N

>  <IUPAC_NAME>
1,1,1,3,3,3-Hexafluoro-2-(trifluoromethyl)propan-2-yl 2-methylpropanoate

>  <SMILES>
CC(C)C(=O)OC(C(F)(F)F)(C(F)(F)F)C(F)(F)F

>  <INCHI_STRING>
InChI=1S/C8H7F9O2/c1-3(2)4(18)19-5(6(9,10)11,7(12,13)14)8(15,16)17/h3H,1-2H3

>  <MOLECULAR_FORMULA>
C8H7F9O2

>  <AVERAGE_MASS>
306.128

>  <MONOISOTOPIC_MASS>
306.030232932

>  <MOL_FILE>
MOL_FILE

$$$$

  -INDIGO-02112615072D

 13 12  0  0  0  0  0  0  0  0999 V2000
    5.7337   -1.2065    0.0000 F   0  0  0  0  0  0  0  0  0  0  0  0
    5.7336    1.8734    0.0000 F   0  0  0  0  0  0  0  0  0  0  0  0
    7.2737   -1.2065    0.0000 F   0  0  0  0  0  0  0  0  0  0  0  0
    7.2737    1.8734    0.0000 F   0  0  0  0  0  0  0  0  0  0  0  0
    3.4235    1.6671    0.0000 F   0  0  0  0  0  0  0  0  0  0  0  0
    3.4237   -1.0004    0.0000 F   0  0  0  0  0  0  0  0  0  0  0  0
    9.5838   -1.0002    0.0000 O   0  0  0  0  0  0  0  0  0  0  0  0
    9.5838    1.6672    0.0000 O   0  0  0  0  0  0  0  0  0  0  0  0
    5.7336    0.3334    0.0000 C   0  0  0  0  0  0  0  0  0  0  0  0
    7.2737    0.3335    0.0000 C   0  0  0  0  0  0  0  0  0  0  0  0
    4.1937    0.3333    0.0000 C   0  0  0  0  0  0  0  0  0  0  0  0
    8.8138    0.3335    0.0000 C   0  0  0  0  0  0  0  0  0  0  0  0
   11.1239   -1.0003    0.0000 C   0  0  0  0  0  0  0  0  0  0  0  0
  1  9  1  0  0  0  0
  2  9  1  0  0  0  0
  3 10  1  0  0  0  0
  4 10  1  0  0  0  0
  5 11  1  0  0  0  0
  6 11  1  0  0  0  0
  7 12  1  0  0  0  0
  7 13  1  0  0  0  0
  8 12  2  0  0  0  0
  9 10  1  0  0  0  0
  9 11  1  0  0  0  0
 10 12  1  0  0  0  0
M  END
>  <INPUT>
DTXSID00379546

>  <FOUND_BY>
DSSTox_Substance_Id

>  <DTXSID>
DTXSID00379546

>  <PREFERRED_NAME>
Methyl 4H-perfluorobutanoate

>  <CASRN>
356-32-1

>  <INCHIKEY>
GUDSBACGSFZSPH-UHFFFAOYSA-N

>  <IUPAC_NAME>
Methyl 2,2,3,3,4,4-hexafluorobutanoate

>  <SMILES>
COC(=O)C(F)(F)C(F)(F)C(F)F

>  <INCHI_STRING>
InChI=1S/C5H4F6O2/c1-13-3(12)5(10,11)4(8,9)2(6)7/h2H,1H3


>  <MOLECULAR_FORMULA>
C5H4F6O2

>  <AVERAGE_MASS>
210.075

>  <MONOISOTOPIC_MASS>
210.011548347

>  <MOL_FILE>
MOL_FILE

$$$$

  -INDIGO-02112615072D

 21 20  0  0  0  0  0  0  0  0999 V2000
    0.5967   -2.7767    0.0000 C   0  0  0  0  0  0  0  0  0  0  0  0
    2.1367   -2.7767    0.0000 O   0  0  0  0  0  0  0  0  0  0  0  0
    2.9067   -1.4390    0.0000 C   0  0  0  0  0  0  0  0  0  0  0  0
    4.4562   -1.4390    0.0000 O   0  0  0  0  0  0  0  0  0  0  0  0
    2.1367   -0.1012    0.0000 C   0  0  0  0  0  0  0  0  0  0  0  0
    3.4745    0.6689    0.0000 C   0  0  0  0  0  0  0  0  0  0  0  0
    4.2446   -0.6689    0.0000 F   0  0  0  0  0  0  0  0  0  0  0  0
    2.7046    2.0068    0.0000 F   0  0  0  0  0  0  0  0  0  0  0  0
    4.8124    1.4388    0.0000 F   0  0  0  0  0  0  0  0  0  0  0  0
    1.3667    1.2367    0.0000 O   0  0  0  0  0  0  0  0  0  0  0  0
   -0.1829    1.2367    0.0000 C   0  0  0  0  0  0  0  0  0  0  0  0
   -1.7229    1.2367    0.0000 C   0  0  0  0  0  0  0  0  0  0  0  0
   -3.2724    1.2367    0.0000 C   0  0  0  0  0  0  0  0  0  0  0  0
   -3.2724    2.7767    0.0000 F   0  0  0  0  0  0  0  0  0  0  0  0
   -3.2724   -0.3128    0.0000 F   0  0  0  0  0  0  0  0  0  0  0  0
   -4.8124    1.2367    0.0000 F   0  0  0  0  0  0  0  0  0  0  0  0
   -1.7229    2.7767    0.0000 F   0  0  0  0  0  0  0  0  0  0  0  0
   -1.7229   -0.3128    0.0000 F   0  0  0  0  0  0  0  0  0  0  0  0
   -0.1829    2.7767    0.0000 F   0  0  0  0  0  0  0  0  0  0  0  0
   -0.1829   -0.3128    0.0000 F   0  0  0  0  0  0  0  0  0  0  0  0
    0.7988   -0.8711    0.0000 F   0  0  0  0  0  0  0  0  0  0  0  0
  1  2  1  0  0  0  0
  2  3  1  0  0  0  0
  3  4  2  0  0  0  0
  3  5  1  0  0  0  0
  5  6  1  0  0  0  0
  5 10  1  0  0  0  0
  5 21  1  0  0  0  0
  6  7  1  0  0  0  0
  6  8  1  0  0  0  0
  6  9  1  0  0  0  0
 10 11  1  0  0  0  0
 11 12  1  0  0  0  0
 11 19  1  0  0  0  0
 11 20  1  0  0  0  0
 12 13  1  0  0  0  0
 12 17  1  0  0  0  0
 12 18  1  0  0  0  0
 13 14  1  0  0  0  0
 13 15  1  0  0  0  0
 13 16  1  0  0  0  0
M  END
>  <INPUT>
DTXSID50880213

>  <FOUND_BY>
DSSTox_Substance_Id

>  <DTXSID>
DTXSID50880213

>  <PREFERRED_NAME>
Methyl perfluoro(2-propoxypropanoate)

>  <CASRN>
13140-34-6

>  <INCHIKEY>
DSKGYKJXZRFRDP-UHFFFAOYNA-N

>  <IUPAC_NAME>
Methyl 2,3,3,3-tetrafluoro-2-(heptafluoropropoxy)propanoate

>  <SMILES>
COC(=O)C(F)(OC(F)(F)C(F)(F)C(F)(F)F)C(F)(F)F

>  <INCHI_STRING>
InChI=1S/C7H3F11O3/c1-20-2(19)3(8,5(11,12)13)21-7(17,18)4(9,10)6(14,15)16/h1H3

>  <MOLECULAR_FORMULA>
C7H3F11O3

>  <AVERAGE_MASS>
344.08

>  <MONOISOTOPIC_MASS>
343.99065375

>  <MOL_FILE>
MOL_FILE

$$$$

  -INDIGO-02112615072D

 12 11  0  0  0  0  0  0  0  0999 V2000
    5.4138   -1.8991    0.0000 F   0  0  0  0  0  0  0  0  0  0  0  0
    5.4138    1.1810    0.0000 F   0  0  0  0  0  0  0  0  0  0  0  0
    6.9538   -1.8991    0.0000 F   0  0  0  0  0  0  0  0  0  0  0  0
    6.9539    1.1810    0.0000 F   0  0  0  0  0  0  0  0  0  0  0  0
   10.0339   -0.3591    0.0000 F   0  0  0  0  0  0  0  0  0  0  0  0
    8.4939   -1.8992    0.0000 F   0  0  0  0  0  0  0  0  0  0  0  0
    8.4939    1.1809    0.0000 F   0  0  0  0  0  0  0  0  0  0  0  0
    3.1039    0.9746    0.0000 N   0  0  0  0  0  0  0  0  0  0  0  0
    5.4138   -0.3591    0.0000 C   0  0  0  0  0  0  0  0  0  0  0  0
    6.9538   -0.3591    0.0000 C   0  0  0  0  0  0  0  0  0  0  0  0
    3.8738   -0.3590    0.0000 C   0  0  0  0  0  0  0  0  0  0  0  0
    8.4939   -0.3591    0.0000 C   0  0  0  0  0  0  0  0  0  0  0  0
  1  9  1  0  0  0  0
  2  9  1  0  0  0  0
  3 10  1  0  0  0  0
  4 10  1  0  0  0  0
  5 12  1  0  0  0  0
  6 12  1  0  0  0  0
  7 12  1  0  0  0  0
  8 11  1  0  0  0  0
  9 10  1  0  0  0  0
  9 11  1  0  0  0  0
 10 12  1  0  0  0  0
M  END
>  <INPUT>
DTXSID10190840

>  <FOUND_BY>
DSSTox_Substance_Id

>  <DTXSID>
DTXSID10190840

>  <PREFERRED_NAME>
1H,1H-Heptafluorobutylamine

>  <CASRN>
374-99-2

>  <INCHIKEY>
WBGBQSRNXPVFDB-UHFFFAOYSA-N

>  <IUPAC_NAME>
2,2,3,3,4,4,4-Heptafluorobutan-1-amine

>  <SMILES>
NCC(F)(F)C(F)(F)C(F)(F)F

>  <INCHI_STRING>
InChI=1S/C4H4F7N/c5-2(6,1-12)3(7,8)4(9,10)11/h1,12H2


>  <MOLECULAR_FORMULA>
C4H4F7N

>  <AVERAGE_MASS>
199.072

>  <MONOISOTOPIC_MASS>
199.023196274

>  <MOL_FILE>
MOL_FILE

$$$$

  -INDIGO-02112615072D

 12 12  0  0  0  0  0  0  0  0999 V2000
    1.4048   -2.7330    0.0000 F   0  0  0  0  0  0  0  0  0  0  0  0
    0.9293   -1.2682    0.0000 C   0  0  0  0  0  0  0  0  0  0  0  0
    1.8311   -0.0219    0.0000 C   0  0  0  0  0  0  0  0  0  0  0  0
    0.9293    1.2243    0.0000 C   0  0  0  0  0  0  0  0  0  0  0  0
    2.0716    2.2575    0.0000 F   0  0  0  0  0  0  0  0  0  0  0  0
    0.6068    2.7330    0.0000 F   0  0  0  0  0  0  0  0  0  0  0  0
   -0.5411    0.7488    0.0000 C   0  0  0  0  0  0  0  0  0  0  0  0
   -1.1641    2.1590    0.0000 F   0  0  0  0  0  0  0  0  0  0  0  0
   -2.0716    0.9129    0.0000 F   0  0  0  0  0  0  0  0  0  0  0  0
   -0.5411   -0.7925    0.0000 C   0  0  0  0  0  0  0  0  0  0  0  0
   -2.0716   -0.9512    0.0000 F   0  0  0  0  0  0  0  0  0  0  0  0
   -1.1641   -2.1973    0.0000 F   0  0  0  0  0  0  0  0  0  0  0  0
  1  2  1  0  0  0  0
  2  3  1  0  0  0  0
  2 10  1  0  0  0  0
  3  4  1  0  0  0  0
  4  5  1  0  0  0  0
  4  6  1  0  0  0  0
  4  7  1  0  0  0  0
  7  8  1  0  0  0  0
  7  9  1  0  0  0  0
  7 10  1  0  0  0  0
 10 11  1  0  0  0  0
 10 12  1  0  0  0  0
M  END
>  <INPUT>
DTXSID50880218

>  <FOUND_BY>
DSSTox_Substance_Id

>  <DTXSID>
DTXSID50880218

>  <PREFERRED_NAME>
1H,1H,2H-Perfluorocyclopentane

>  <CASRN>
15290-77-4

>  <INCHIKEY>
IDBYQQQHBYGLEQ-UHFFFAOYNA-N

>  <IUPAC_NAME>
1,1,2,2,3,3,4-Heptafluorocyclopentane

>  <SMILES>
FC1CC(F)(F)C(F)(F)C1(F)F

>  <INCHI_STRING>
InChI=1S/C5H3F7/c6-2-1-3(7,8)5(11,12)4(2,9)10/h2H,1H2

>  <MOLECULAR_FORMULA>
C5H3F7

>  <AVERAGE_MASS>
196.068

>  <MONOISOTOPIC_MASS>
196.012297238

>  <MOL_FILE>
MOL_FILE

$$$$

  -INDIGO-02112615072D

 18 17  0  0  0  0  0  0  0  0999 V2000
    4.4137   -1.0519    0.0000 Si  0  0  0  0  0  0  0  0  0  0  0  0
    7.6449    1.0519    0.0000 F   0  0  0  0  0  0  0  0  0  0  0  0
    9.1849   -1.6154    0.0000 F   0  0  0  0  0  0  0  0  0  0  0  0
    8.9785    1.8219    0.0000 F   0  0  0  0  0  0  0  0  0  0  0  0
   10.5187   -0.8454    0.0000 F   0  0  0  0  0  0  0  0  0  0  0  0
   12.4161    2.0281    0.0000 F   0  0  0  0  0  0  0  0  0  0  0  0
   11.8524   -0.0754    0.0000 F   0  0  0  0  0  0  0  0  0  0  0  0
   10.3124    2.5919    0.0000 F   0  0  0  0  0  0  0  0  0  0  0  0
    7.0812   -2.5919    0.0000 O   0  0  0  0  0  0  0  0  0  0  0  0
    5.7475   -0.2819    0.0000 N   0  0  0  0  0  0  0  0  0  0  0  0
    3.0800   -1.8219    0.0000 C   0  0  0  0  0  0  0  0  0  0  0  0
    3.6437    0.2819    0.0000 C   0  0  0  0  0  0  0  0  0  0  0  0
    5.1837   -2.3856    0.0000 C   0  0  0  0  0  0  0  0  0  0  0  0
    7.0812   -1.0519    0.0000 C   0  0  0  0  0  0  0  0  0  0  0  0
    8.4149   -0.2819    0.0000 C   0  0  0  0  0  0  0  0  0  0  0  0
    5.7475    1.2581    0.0000 C   0  0  0  0  0  0  0  0  0  0  0  0
    9.7485    0.4881    0.0000 C   0  0  0  0  0  0  0  0  0  0  0  0
   11.0824    1.2581    0.0000 C   0  0  0  0  0  0  0  0  0  0  0  0
  1 10  1  0  0  0  0
  1 11  1  0  0  0  0
  1 12  1  0  0  0  0
  1 13  1  0  0  0  0
  2 15  1  0  0  0  0
  3 15  1  0  0  0  0
  4 17  1  0  0  0  0
  5 17  1  0  0  0  0
  6 18  1  0  0  0  0
  7 18  1  0  0  0  0
  8 18  1  0  0  0  0
  9 14  2  0  0  0  0
 10 14  1  0  0  0  0
 10 16  1  0  0  0  0
 14 15  1  0  0  0  0
 15 17  1  0  0  0  0
 17 18  1  0  0  0  0
M  END
>  <INPUT>
DTXSID40379666

>  <FOUND_BY>
DSSTox_Substance_Id

>  <DTXSID>
DTXSID40379666

>  <PREFERRED_NAME>
N-Methyl-N-trimethylsilylheptafluorobutyramide

>  <CASRN>
53296-64-3

>  <INCHIKEY>
CMXKINNDZCNCEI-UHFFFAOYSA-N

>  <IUPAC_NAME>
2,2,3,3,4,4,4-Heptafluoro-N-methyl-N-(trimethylsilyl)butanamide

>  <SMILES>
CN(C(=O)C(F)(F)C(F)(F)C(F)(F)F)[Si](C)(C)C

>  <INCHI_STRING>
InChI=1S/C8H12F7NOSi/c1-16(18(2,3)4)5(17)6(9,10)7(11,12)8(13,14)15/h1-4H3

>  <MOLECULAR_FORMULA>
C8H12F7NOSi

>  <AVERAGE_MASS>
299.264

>  <MONOISOTOPIC_MASS>
299.057637686

>  <MOL_FILE>
MOL_FILE

$$$$

  -INDIGO-02112615072D

 18 16  0  0  0  0  0  0  0  0999 V2000
    4.8164   -3.6218    0.0000 K   0  0  0  0  0  0  0  0  0  0  0  0
    9.4364   -3.6218    0.0000 C   0  0  0  0  0  0  0  0  0  0  0  0
   10.9764   -3.6218    0.0000 C   0  0  0  0  0  0  0  0  0  0  0  0
   12.5164   -3.6218    0.0000 C   0  0  0  0  0  0  0  0  0  0  0  0
   14.0564   -3.6218    0.0000 C   0  0  0  0  0  0  0  0  0  0  0  0
    7.8964   -3.6218    0.0000 S   0  0  0  0  0  0  0  0  0  0  0  0
    7.8964   -2.0818    0.0000 O   0  0  0  0  0  0  0  0  0  0  0  0
    6.3564   -3.6218    0.0000 O   0  0  0  0  0  0  0  0  0  0  0  0
    7.8964   -5.1618    0.0000 O   0  0  0  0  0  0  0  0  0  0  0  0
    9.4364   -5.1618    0.0000 F   0  0  0  0  0  0  0  0  0  0  0  0
    9.4364   -2.0818    0.0000 F   0  0  0  0  0  0  0  0  0  0  0  0
   10.9764   -5.1618    0.0000 F   0  0  0  0  0  0  0  0  0  0  0  0
   10.9764   -2.0818    0.0000 F   0  0  0  0  0  0  0  0  0  0  0  0
   12.5164   -5.1618    0.0000 F   0  0  0  0  0  0  0  0  0  0  0  0
   12.5164   -2.0818    0.0000 F   0  0  0  0  0  0  0  0  0  0  0  0
   15.5964   -3.6218    0.0000 F   0  0  0  0  0  0  0  0  0  0  0  0
   14.0564   -5.1618    0.0000 F   0  0  0  0  0  0  0  0  0  0  0  0
   14.0564   -2.0818    0.0000 F   0  0  0  0  0  0  0  0  0  0  0  0
  2  3  1  0  0  0  0
  2  6  1  0  0  0  0
  2 10  1  0  0  0  0
  2 11  1  0  0  0  0
  3  4  1  0  0  0  0
  3 12  1  0  0  0  0
  3 13  1  0  0  0  0
  4  5  1  0  0  0  0
  4 14  1  0  0  0  0
  4 15  1  0  0  0  0
  5 16  1  0  0  0  0
  5 17  1  0  0  0  0
  5 18  1  0  0  0  0
  6  7  2  0  0  0  0
  6  8  1  0  0  0  0
  6  9  2  0  0  0  0
M  CHG  2   1   1   8  -1
M  END
>  <INPUT>
DTXSID3037707

>  <FOUND_BY>
DSSTox_Substance_Id

>  <DTXSID>
DTXSID3037707

>  <PREFERRED_NAME>
Potassium perfluorobutanesulfonate

>  <CASRN>
29420-49-3

>  <INCHIKEY>
LVTHXRLARFLXNR-UHFFFAOYSA-M

>  <IUPAC_NAME>
Potassium nonafluorobutane-1-sulfonate

>  <SMILES>
[K+].[O-]S(=O)(=O)C(F)(F)C(F)(F)C(F)(F)C(F)(F)F

>  <INCHI_STRING>
InChI=1S/C4HF9O3S.K/c5-1(6,3(9,10)11)2(7,8)4(12,13)17(14,15)16;/h(H,14,15,16);/q;+1/p-1


>  <MOLECULAR_FORMULA>
C4F9KO3S

>  <AVERAGE_MASS>
338.18

>  <MONOISOTOPIC_MASS>
337.90614999

>  <MOL_FILE>
MOL_FILE

$$$$

  -INDIGO-02112615072D

 12 11  0  0  0  0  0  0  0  0999 V2000
   11.0824   -1.2581    0.0000 F   0  0  0  0  0  0  0  0  0  0  0  0
   10.5187    0.8454    0.0000 F   0  0  0  0  0  0  0  0  0  0  0  0
    8.9785   -1.8219    0.0000 F   0  0  0  0  0  0  0  0  0  0  0  0
    3.0800   -1.2581    0.0000 F   0  0  0  0  0  0  0  0  0  0  0  0
    3.6437    0.8454    0.0000 F   0  0  0  0  0  0  0  0  0  0  0  0
    5.1837   -1.8219    0.0000 F   0  0  0  0  0  0  0  0  0  0  0  0
    7.0812   -0.4881    0.0000 O   0  0  0  0  0  0  0  0  0  0  0  0
    5.7475    1.8219    0.0000 O   0  0  0  0  0  0  0  0  0  0  0  0
    8.4149    0.2819    0.0000 C   0  0  0  0  0  0  0  0  0  0  0  0
    9.7485   -0.4881    0.0000 C   0  0  0  0  0  0  0  0  0  0  0  0
    5.7475    0.2819    0.0000 C   0  0  0  0  0  0  0  0  0  0  0  0
    4.4137   -0.4881    0.0000 C   0  0  0  0  0  0  0  0  0  0  0  0
  1 10  1  0  0  0  0
  2 10  1  0  0  0  0
  3 10  1  0  0  0  0
  4 12  1  0  0  0  0
  5 12  1  0  0  0  0
  6 12  1  0  0  0  0
  7  9  1  0  0  0  0
  7 11  1  0  0  0  0
  8 11  2  0  0  0  0
  9 10  1  0  0  0  0
 11 12  1  0  0  0  0
M  END
>  <INPUT>
DTXSID30193676

>  <FOUND_BY>
DSSTox_Substance_Id

>  <DTXSID>
DTXSID30193676

>  <PREFERRED_NAME>
2,2,2-Trifluoroethyl trifluoroacetate

>  <CASRN>
407-38-5

>  <INCHIKEY>
ZKUJOCJJXCPCFS-UHFFFAOYSA-N

>  <IUPAC_NAME>
2,2,2-Trifluoroethyl trifluoroacetate

>  <SMILES>
FC(F)(F)COC(=O)C(F)(F)F

>  <INCHI_STRING>
InChI=1S/C4H2F6O2/c5-3(6,7)1-12-2(11)4(8,9)10/h1H2

>  <MOLECULAR_FORMULA>
C4H2F6O2

>  <AVERAGE_MASS>
196.048

>  <MONOISOTOPIC_MASS>
195.995898282

>  <MOL_FILE>
MOL_FILE

$$$$

  -INDIGO-02112615072D

 14 13  0  0  0  0  0  0  0  0999 V2000
    6.3112    1.0410    0.0000 F   0  0  0  0  0  0  0  0  0  0  0  0
    7.8512   -1.6262    0.0000 F   0  0  0  0  0  0  0  0  0  0  0  0
    7.6449    1.8110    0.0000 F   0  0  0  0  0  0  0  0  0  0  0  0
    9.1849   -0.8562    0.0000 F   0  0  0  0  0  0  0  0  0  0  0  0
    4.9775    0.2710    0.0000 F   0  0  0  0  0  0  0  0  0  0  0  0
    6.5175   -2.3962    0.0000 F   0  0  0  0  0  0  0  0  0  0  0  0
   11.0824    0.4775    0.0000 F   0  0  0  0  0  0  0  0  0  0  0  0
    9.7485    2.7875    0.0000 F   0  0  0  0  0  0  0  0  0  0  0  0
    3.0800   -1.0627    0.0000 O   0  0  0  0  0  0  0  0  0  0  0  0
    7.0812   -0.2927    0.0000 C   0  0  0  0  0  0  0  0  0  0  0  0
    8.4149    0.4775    0.0000 C   0  0  0  0  0  0  0  0  0  0  0  0
    5.7475   -1.0627    0.0000 C   0  0  0  0  0  0  0  0  0  0  0  0
    9.7485    1.2475    0.0000 C   0  0  0  0  0  0  0  0  0  0  0  0
    4.4137   -1.8327    0.0000 C   0  0  0  0  0  0  0  0  0  0  0  0
  1 10  1  0  0  0  0
  2 10  1  0  0  0  0
  3 11  1  0  0  0  0
  4 11  1  0  0  0  0
  5 12  1  0  0  0  0
  6 12  1  0  0  0  0
  7 13  1  0  0  0  0
  8 13  1  0  0  0  0
  9 14  2  0  0  0  0
 10 11  1  0  0  0  0
 10 12  1  0  0  0  0
 11 13  1  0  0  0  0
 12 14  1  0  0  0  0
M  END
>  <INPUT>
DTXSID20337466

>  <FOUND_BY>
DSSTox_Substance_Id

>  <DTXSID>
DTXSID20337466

>  <PREFERRED_NAME>
5H-Perfluoropentanal

>  <CASRN>
2648-47-7

>  <INCHIKEY>
BQFRALWVZATVGY-UHFFFAOYSA-N

>  <IUPAC_NAME>
2,2,3,3,4,4,5,5-Octafluoropentanal

>  <SMILES>
FC(F)C(F)(F)C(F)(F)C(F)(F)C=O

>  <INCHI_STRING>
InChI=1S/C5H2F8O/c6-2(7)4(10,11)5(12,13)3(8,9)1-14/h1-2H

>  <MOLECULAR_FORMULA>
C5H2F8O

>  <AVERAGE_MASS>
230.057

>  <MONOISOTOPIC_MASS>
229.997789988

>  <MOL_FILE>
MOL_FILE

$$$$

  -INDIGO-02112615072D

 11 10  0  0  0  0  0  0  0  0999 V2000
   11.0824   -0.7700    0.0000 F   0  0  0  0  0  0  0  0  0  0  0  0
   10.5187    1.3337    0.0000 F   0  0  0  0  0  0  0  0  0  0  0  0
    8.9785   -1.3337    0.0000 F   0  0  0  0  0  0  0  0  0  0  0  0
    3.0800   -0.7700    0.0000 F   0  0  0  0  0  0  0  0  0  0  0  0
    3.6437    1.3337    0.0000 F   0  0  0  0  0  0  0  0  0  0  0  0
    5.1837   -1.3337    0.0000 F   0  0  0  0  0  0  0  0  0  0  0  0
    7.0812    0.0000    0.0000 N   0  0  0  0  0  0  0  0  0  0  0  0
    8.4149    0.7700    0.0000 C   0  0  0  0  0  0  0  0  0  0  0  0
    5.7475    0.7700    0.0000 C   0  0  0  0  0  0  0  0  0  0  0  0
    4.4137    0.0000    0.0000 C   0  0  0  0  0  0  0  0  0  0  0  0
    9.7485    0.0000    0.0000 C   0  0  0  0  0  0  0  0  0  0  0  0
  1 11  1  0  0  0  0
  2 11  1  0  0  0  0
  3 11  1  0  0  0  0
  4 10  1  0  0  0  0
  5 10  1  0  0  0  0
  6 10  1  0  0  0  0
  7  8  1  0  0  0  0
  7  9  1  0  0  0  0
  8 11  1  0  0  0  0
  9 10  1  0  0  0  0
M  END
>  <INPUT>
DTXSID30193671

>  <FOUND_BY>
DSSTox_Substance_Id

>  <DTXSID>
DTXSID30193671

>  <PREFERRED_NAME>
Bis(2,2,2-trifluoroethyl)amine

>  <CASRN>
407-01-2

>  <INCHIKEY>
GTJGHXLFPMOKCE-UHFFFAOYSA-N

>  <IUPAC_NAME>
2,2,2-Trifluoro-N-(2,2,2-trifluoroethyl)ethan-1-amine

>  <SMILES>
FC(F)(F)CNCC(F)(F)F

>  <INCHI_STRING>
InChI=1S/C4H5F6N/c5-3(6,7)1-11-2-4(8,9)10/h11H,1-2H2

>  <MOLECULAR_FORMULA>
C4H5F6N

>  <AVERAGE_MASS>
181.081

>  <MONOISOTOPIC_MASS>
181.032618143

>  <MOL_FILE>
MOL_FILE

$$$$

  -INDIGO-02112615072D

 14 13  0  0  0  0  0  0  0  0999 V2000
    4.4137   -0.7700    0.0000 S   0  0  0  0  0  0  0  0  0  0  0  0
    4.9775    1.3337    0.0000 F   0  0  0  0  0  0  0  0  0  0  0  0
    6.5175   -1.3337    0.0000 F   0  0  0  0  0  0  0  0  0  0  0  0
    6.3112    2.1037    0.0000 F   0  0  0  0  0  0  0  0  0  0  0  0
    7.8512   -0.5637    0.0000 F   0  0  0  0  0  0  0  0  0  0  0  0
    3.0800   -1.5400    0.0000 F   0  0  0  0  0  0  0  0  0  0  0  0
    8.4149    1.5400    0.0000 O   0  0  0  0  0  0  0  0  0  0  0  0
    3.6437    0.5637    0.0000 O   0  0  0  0  0  0  0  0  0  0  0  0
    5.1837   -2.1037    0.0000 O   0  0  0  0  0  0  0  0  0  0  0  0
    5.7475    0.0000    0.0000 C   0  0  0  0  0  0  0  0  0  0  0  0
    7.0812    0.7700    0.0000 C   0  0  0  0  0  0  0  0  0  0  0  0
    9.7485    0.7700    0.0000 C   0  0  0  0  0  0  0  0  0  0  0  0
   11.0824    1.5400    0.0000 C   0  0  0  0  0  0  0  0  0  0  0  0
   12.4161    0.7700    0.0000 C   0  0  0  0  0  0  0  0  0  0  0  0
  1  6  1  0  0  0  0
  1  8  2  0  0  0  0
  1  9  2  0  0  0  0
  1 10  1  0  0  0  0
  2 10  1  0  0  0  0
  3 10  1  0  0  0  0
  4 11  1  0  0  0  0
  5 11  1  0  0  0  0
  7 11  1  0  0  0  0
  7 12  1  0  0  0  0
 10 11  1  0  0  0  0
 12 13  1  0  0  0  0
 13 14  2  0  0  0  0
M  END
>  <INPUT>
DTXSID40381986

>  <FOUND_BY>
DSSTox_Substance_Id

>  <DTXSID>
DTXSID40381986

>  <PREFERRED_NAME>
2-Allyloxyperfluoroethanesulfonyl fluoride

>  <CASRN>
73606-13-0

>  <INCHIKEY>
IMNCTHAFGYFIOE-UHFFFAOYSA-N

>  <IUPAC_NAME>
1,1,2,2-Tetrafluoro-2-[(prop-2-en-1-yl)oxy]ethane-1-sulfonyl fluoride

>  <SMILES>
FC(F)(OCC=C)C(F)(F)S(F)(=O)=O

>  <INCHI_STRING>
InChI=1S/C5H5F5O3S/c1-2-3-13-4(6,7)5(8,9)14(10,11)12/h2H,1,3H2

>  <MOLECULAR_FORMULA>
C5H5F5O3S

>  <AVERAGE_MASS>
240.14

>  <MONOISOTOPIC_MASS>
239.98795601

>  <MOL_FILE>
MOL_FILE

$$$$

  -INDIGO-02112615072D

 33 32  0  0  0  0  0  0  0  0999 V2000
    5.9537    3.4373    0.0000 C   0  0  0  0  0  0  0  0  0  0  0  0
    4.6200    2.6673    0.0000 C   0  0  0  0  0  0  0  0  0  0  0  0
    3.2863    3.4373    0.0000 C   0  0  0  0  0  0  0  0  0  0  0  0
    4.6200    1.1273    0.0000 C   0  0  0  0  0  0  0  0  0  0  0  0
    5.9537    4.9773    0.0000 O   0  0  0  0  0  0  0  0  0  0  0  0
    7.2873    2.6673    0.0000 O   0  0  0  0  0  0  0  0  0  0  0  0
    8.6210    3.4373    0.0000 C   0  0  0  0  0  0  0  0  0  0  0  0
    9.9547    2.6673    0.0000 C   0  0  0  0  0  0  0  0  0  0  0  0
   11.2885    3.4373    0.0000 C   0  0  0  0  0  0  0  0  0  0  0  0
   12.6220    4.2073    0.0000 C   0  0  0  0  0  0  0  0  0  0  0  0
   13.9558    4.9773    0.0000 C   0  0  0  0  0  0  0  0  0  0  0  0
   15.2895    5.7473    0.0000 C   0  0  0  0  0  0  0  0  0  0  0  0
   16.6230    6.5173    0.0000 C   0  0  0  0  0  0  0  0  0  0  0  0
   17.9568    7.2873    0.0000 C   0  0  0  0  0  0  0  0  0  0  0  0
   19.2905    8.0573    0.0000 C   0  0  0  0  0  0  0  0  0  0  0  0
   20.6242    8.8273    0.0000 C   0  0  0  0  0  0  0  0  0  0  0  0
   21.9578    9.5973    0.0000 F   0  0  0  0  0  0  0  0  0  0  0  0
   21.3942    7.4937    0.0000 F   0  0  0  0  0  0  0  0  0  0  0  0
   19.8542   10.1610    0.0000 F   0  0  0  0  0  0  0  0  0  0  0  0
   20.0605    6.7237    0.0000 F   0  0  0  0  0  0  0  0  0  0  0  0
   18.5205    9.3910    0.0000 F   0  0  0  0  0  0  0  0  0  0  0  0
   18.7268    5.9537    0.0000 F   0  0  0  0  0  0  0  0  0  0  0  0
   17.1868    8.6210    0.0000 F   0  0  0  0  0  0  0  0  0  0  0  0
   17.3930    5.1837    0.0000 F   0  0  0  0  0  0  0  0  0  0  0  0
   15.8530    7.8510    0.0000 F   0  0  0  0  0  0  0  0  0  0  0  0
   16.0595    4.4137    0.0000 F   0  0  0  0  0  0  0  0  0  0  0  0
   14.5195    7.0810    0.0000 F   0  0  0  0  0  0  0  0  0  0  0  0
   14.7258    3.6437    0.0000 F   0  0  0  0  0  0  0  0  0  0  0  0
   13.1858    6.3110    0.0000 F   0  0  0  0  0  0  0  0  0  0  0  0
   13.3920    2.8737    0.0000 F   0  0  0  0  0  0  0  0  0  0  0  0
   11.8520    5.5410    0.0000 F   0  0  0  0  0  0  0  0  0  0  0  0
   12.0585    2.1037    0.0000 F   0  0  0  0  0  0  0  0  0  0  0  0
   10.5185    4.7710    0.0000 F   0  0  0  0  0  0  0  0  0  0  0  0
  1  2  1  0  0  0  0
  2  3  2  0  0  0  0
  2  4  1  0  0  0  0
  1  5  2  0  0  0  0
  1  6  1  0  0  0  0
  6  7  1  0  0  0  0
  7  8  1  0  0  0  0
  8  9  1  0  0  0  0
  9 10  1  0  0  0  0
 10 11  1  0  0  0  0
 11 12  1  0  0  0  0
 12 13  1  0  0  0  0
 13 14  1  0  0  0  0
 14 15  1  0  0  0  0
 15 16  1  0  0  0  0
 16 17  1  0  0  0  0
 16 18  1  0  0  0  0
 16 19  1  0  0  0  0
 15 20  1  0  0  0  0
 15 21  1  0  0  0  0
 14 22  1  0  0  0  0
 14 23  1  0  0  0  0
 13 24  1  0  0  0  0
 13 25  1  0  0  0  0
 12 26  1  0  0  0  0
 12 27  1  0  0  0  0
 11 28  1  0  0  0  0
 11 29  1  0  0  0  0
 10 30  1  0  0  0  0
 10 31  1  0  0  0  0
  9 32  1  0  0  0  0
  9 33  1  0  0  0  0
M  END
>  <INPUT>
DTXSID8062101

>  <FOUND_BY>
DSSTox_Substance_Id

>  <DTXSID>
DTXSID8062101

>  <PREFERRED_NAME>
2-(Perfluorooctyl)ethyl methacrylate

>  <CASRN>
1996-88-9

>  <INCHIKEY>
HBZFBSFGXQBQTB-UHFFFAOYSA-N

>  <IUPAC_NAME>
3,3,4,4,5,5,6,6,7,7,8,8,9,9,10,10,10-Heptadecafluorodecyl 2-methylprop-2-enoate

>  <SMILES>
CC(=C)C(=O)OCCC(F)(F)C(F)(F)C(F)(F)C(F)(F)C(F)(F)C(F)(F)C(F)(F)C(F)(F)F

>  <INCHI_STRING>
InChI=1S/C14H9F17O2/c1-5(2)6(32)33-4-3-7(15,16)8(17,18)9(19,20)10(21,22)11(23,24)12(25,26)13(27,28)14(29,30)31/h1,3-4H2,2H3


>  <MOLECULAR_FORMULA>
C14H9F17O2

>  <AVERAGE_MASS>
532.197

>  <MONOISOTOPIC_MASS>
532.033108301

>  <MOL_FILE>
MOL_FILE

$$$$

  -INDIGO-02112615072D

 26 25  0  0  0  0  0  0  0  0999 V2000
    0.7742   -0.6895    0.0000 C   0  0  0  0  0  0  0  0  0  0  0  0
    2.3058   -0.8505    0.0000 C   0  0  0  0  0  0  0  0  0  0  0  0
    3.8373   -1.0115    0.0000 C   0  0  0  0  0  0  0  0  0  0  0  0
    5.3689   -1.1724    0.0000 C   0  0  0  0  0  0  0  0  0  0  0  0
    6.9005   -1.3334    0.0000 C   0  0  0  0  0  0  0  0  0  0  0  0
    8.4320   -1.4944    0.0000 F   0  0  0  0  0  0  0  0  0  0  0  0
    7.0614    0.1982    0.0000 F   0  0  0  0  0  0  0  0  0  0  0  0
    6.7395   -2.8650    0.0000 F   0  0  0  0  0  0  0  0  0  0  0  0
    5.5299    0.3591    0.0000 F   0  0  0  0  0  0  0  0  0  0  0  0
    5.2079   -2.7040    0.0000 F   0  0  0  0  0  0  0  0  0  0  0  0
    3.9983    0.5201    0.0000 F   0  0  0  0  0  0  0  0  0  0  0  0
    3.6764   -2.5430    0.0000 F   0  0  0  0  0  0  0  0  0  0  0  0
    2.4668    0.6811    0.0000 F   0  0  0  0  0  0  0  0  0  0  0  0
    2.1448   -2.3821    0.0000 F   0  0  0  0  0  0  0  0  0  0  0  0
   -0.7573   -0.5285    0.0000 C   0  0  0  0  0  0  0  0  0  0  0  0
   -2.2889   -0.3676    0.0000 C   0  0  0  0  0  0  0  0  0  0  0  0
   -3.8205   -0.2066    0.0000 C   0  0  0  0  0  0  0  0  0  0  0  0
   -5.3520   -0.0456    0.0000 F   0  0  0  0  0  0  0  0  0  0  0  0
   -3.6595    1.3250    0.0000 F   0  0  0  0  0  0  0  0  0  0  0  0
   -3.9814   -1.7382    0.0000 F   0  0  0  0  0  0  0  0  0  0  0  0
   -2.1279    1.1640    0.0000 F   0  0  0  0  0  0  0  0  0  0  0  0
   -2.4499   -1.8991    0.0000 F   0  0  0  0  0  0  0  0  0  0  0  0
   -0.5964    1.0030    0.0000 F   0  0  0  0  0  0  0  0  0  0  0  0
   -0.9183   -2.0601    0.0000 F   0  0  0  0  0  0  0  0  0  0  0  0
    0.9352    0.8421    0.0000 F   0  0  0  0  0  0  0  0  0  0  0  0
    0.6132   -2.2211    0.0000 F   0  0  0  0  0  0  0  0  0  0  0  0
  1  2  1  0  0  0  0
  2  3  1  0  0  0  0
  3  4  1  0  0  0  0
  4  5  1  0  0  0  0
  5  6  1  0  0  0  0
  5  7  1  0  0  0  0
  5  8  1  0  0  0  0
  4  9  1  0  0  0  0
  4 10  1  0  0  0  0
  3 11  1  0  0  0  0
  3 12  1  0  0  0  0
  2 13  1  0  0  0  0
  2 14  1  0  0  0  0
  1 15  1  0  0  0  0
 15 16  1  0  0  0  0
 16 17  1  0  0  0  0
 17 18  1  0  0  0  0
 17 19  1  0  0  0  0
 17 20  1  0  0  0  0
 16 21  1  0  0  0  0
 16 22  1  0  0  0  0
 15 23  1  0  0  0  0
 15 24  1  0  0  0  0
  1 25  1  0  0  0  0
  1 26  1  0  0  0  0
M  END
>  <INPUT>
DTXSID0059794

>  <FOUND_BY>
DSSTox_Substance_Id

>  <DTXSID>
DTXSID0059794

>  <PREFERRED_NAME>
Perfluorooctane

>  <CASRN>
307-34-6

>  <INCHIKEY>
YVBBRRALBYAZBM-UHFFFAOYSA-N

>  <IUPAC_NAME>
Octadecafluorooctane

>  <SMILES>
FC(F)(F)C(F)(F)C(F)(F)C(F)(F)C(F)(F)C(F)(F)C(F)(F)C(F)(F)F

>  <INCHI_STRING>
InChI=1S/C8F18/c9-1(10,3(13,14)5(17,18)7(21,22)23)2(11,12)4(15,16)6(19,20)8(24,25)26


>  <MOLECULAR_FORMULA>
C8F18

>  <AVERAGE_MASS>
438.059

>  <MONOISOTOPIC_MASS>
437.971256934

>  <MOL_FILE>
MOL_FILE

$$$$

  -INDIGO-02112615072D

 12 11  0  0  0  0  0  0  0  0999 V2000
    1.5400    0.0000    0.0000 C   0  0  0  0  0  0  0  0  0  0  0  0
    1.5400   -1.5400    0.0000 C   0  0  0  0  0  0  0  0  0  0  0  0
    1.5400   -3.0800    0.0000 F   0  0  0  0  0  0  0  0  0  0  0  0
    3.0800   -1.5400    0.0000 F   0  0  0  0  0  0  0  0  0  0  0  0
    0.0000   -1.5400    0.0000 F   0  0  0  0  0  0  0  0  0  0  0  0
    1.5400    1.5400    0.0000 C   0  0  0  0  0  0  0  0  0  0  0  0
    0.2063    2.3100    0.0000 O   0  0  0  0  0  0  0  0  0  0  0  0
    0.2063    3.8500    0.0000 C   0  0  0  0  0  0  0  0  0  0  0  0
   -1.1273    4.6200    0.0000 F   0  0  0  0  0  0  0  0  0  0  0  0
    1.5400    4.6200    0.0000 F   0  0  0  0  0  0  0  0  0  0  0  0
    3.0800    0.0000    0.0000 F   0  0  0  0  0  0  0  0  0  0  0  0
    0.0000    0.0000    0.0000 F   0  0  0  0  0  0  0  0  0  0  0  0
  1  2  1  0  0  0  0
  2  3  1  0  0  0  0
  2  4  1  0  0  0  0
  2  5  1  0  0  0  0
  1  6  1  0  0  0  0
  6  7  1  0  0  0  0
  7  8  1  0  0  0  0
  8  9  1  0  0  0  0
  8 10  1  0  0  0  0
  1 11  1  0  0  0  0
  1 12  1  0  0  0  0
M  END
>  <INPUT>
DTXSID0074059

>  <FOUND_BY>
DSSTox_Substance_Id

>  <DTXSID>
DTXSID0074059

>  <PREFERRED_NAME>
Difluoromethyl 1H,1H-perfluoropropyl ether

>  <CASRN>
56860-81-2

>  <INCHIKEY>
NKEBKUGEYSHGKA-UHFFFAOYSA-N

>  <IUPAC_NAME>
3-(Difluoromethoxy)-1,1,1,2,2-pentafluoropropane

>  <SMILES>
FC(F)OCC(F)(F)C(F)(F)F

>  <INCHI_STRING>
InChI=1S/C4H3F7O/c5-2(6)12-1-3(7,8)4(9,10)11/h2H,1H2

>  <MOLECULAR_FORMULA>
C4H3F7O

>  <AVERAGE_MASS>
200.056

>  <MONOISOTOPIC_MASS>
200.007211858

>  <MOL_FILE>
MOL_FILE

$$$$

  -INDIGO-02112615072D

 26 25  0  0  0  0  0  0  0  0999 V2000
   10.6827   -7.2194    0.0000 F   0  0  0  0  0  0  0  0  0  0  0  0
    9.1427   -4.5521    0.0000 C   0  0  0  0  0  0  0  0  0  0  0  0
    8.3727   -3.2184    0.0000 C   0  0  0  0  0  0  0  0  0  0  0  0
    9.9127   -5.8858    0.0000 S   0  0  0  0  0  0  0  0  0  0  0  0
   11.2464   -5.1158    0.0000 O   0  0  0  0  0  0  0  0  0  0  0  0
    8.5790   -6.6558    0.0000 O   0  0  0  0  0  0  0  0  0  0  0  0
    7.6027   -1.8847    0.0000 O   0  0  0  0  0  0  0  0  0  0  0  0
    6.0627   -1.8847    0.0000 C   0  0  0  0  0  0  0  0  0  0  0  0
    6.0627   -0.3447    0.0000 C   0  0  0  0  0  0  0  0  0  0  0  0
    4.5227   -1.8847    0.0000 C   0  0  0  0  0  0  0  0  0  0  0  0
    4.5227   -0.3447    0.0000 F   0  0  0  0  0  0  0  0  0  0  0  0
    4.5227   -3.4247    0.0000 F   0  0  0  0  0  0  0  0  0  0  0  0
    2.9827   -1.8847    0.0000 O   0  0  0  0  0  0  0  0  0  0  0  0
    2.2127   -3.2184    0.0000 C   0  0  0  0  0  0  0  0  0  0  0  0
    0.6727   -3.2184    0.0000 C   0  0  0  0  0  0  0  0  0  0  0  0
    2.9827   -4.5521    0.0000 F   0  0  0  0  0  0  0  0  0  0  0  0
   -0.0973   -4.5521    0.0000 F   0  0  0  0  0  0  0  0  0  0  0  0
   -0.0973   -1.8847    0.0000 F   0  0  0  0  0  0  0  0  0  0  0  0
    6.0627   -3.4247    0.0000 F   0  0  0  0  0  0  0  0  0  0  0  0
    6.0627    1.1953    0.0000 F   0  0  0  0  0  0  0  0  0  0  0  0
    4.8168    0.5605    0.0000 F   0  0  0  0  0  0  0  0  0  0  0  0
    7.6027   -0.3447    0.0000 F   0  0  0  0  0  0  0  0  0  0  0  0
   10.4764   -3.7821    0.0000 F   0  0  0  0  0  0  0  0  0  0  0  0
    7.8090   -5.3221    0.0000 F   0  0  0  0  0  0  0  0  0  0  0  0
    9.7064   -2.4484    0.0000 F   0  0  0  0  0  0  0  0  0  0  0  0
    7.0390   -3.9884    0.0000 F   0  0  0  0  0  0  0  0  0  0  0  0
  1  4  1  0  0  0  0
  2  3  1  0  0  0  0
  2  4  1  0  0  0  0
  2 23  1  0  0  0  0
  2 24  1  0  0  0  0
  3  7  1  0  0  0  0
  3 25  1  0  0  0  0
  3 26  1  0  0  0  0
  4  5  2  0  0  0  0
  4  6  2  0  0  0  0
  7  8  1  0  0  0  0
  8  9  1  0  0  0  0
  8 10  1  0  0  0  0
  8 19  1  0  0  0  0
  9 20  1  0  0  0  0
  9 21  1  0  0  0  0
  9 22  1  0  0  0  0
 10 11  1  0  0  0  0
 10 12  1  0  0  0  0
 10 13  1  0  0  0  0
 13 14  1  0  0  0  0
 14 15  2  0  0  0  0
 14 16  1  0  0  0  0
 15 17  1  0  0  0  0
 15 18  1  0  0  0  0
M  END
>  <INPUT>
DTXSID3044596

>  <FOUND_BY>
DSSTox_Substance_Id

>  <DTXSID>
DTXSID3044596

>  <PREFERRED_NAME>
Perfluoro(4-methyl-3,6-dioxaoct-7-ene)sulfonyl fluoride

>  <CASRN>
16090-14-5

>  <INCHIKEY>
KTCQQCLZUOZFEI-UHFFFAOYNA-N

>  <IUPAC_NAME>
1,1,2,2-Tetrafluoro-2-({1,1,1,2,3,3-hexafluoro-3-[(trifluoroethenyl)oxy]propan-2-yl}oxy)ethane-1-sulfonyl fluoride

>  <SMILES>
FC(F)=C(F)OC(F)(F)C(F)(OC(F)(F)C(F)(F)S(F)(=O)=O)C(F)(F)F

>  <INCHI_STRING>
InChI=1S/C7F14O4S/c8-1(9)2(10)24-5(15,16)3(11,4(12,13)14)25-6(17,18)7(19,20)26(21,22)23

>  <MOLECULAR_FORMULA>
C7F14O4S

>  <AVERAGE_MASS>
446.11

>  <MONOISOTOPIC_MASS>
445.929373936

>  <MOL_FILE>
MOL_FILE

$$$$

  -INDIGO-02112615072D

 22 21  0  0  0  0  0  0  0  0999 V2000
    3.0800   -1.4368    0.0000 Cl  0  0  0  0  0  0  0  0  0  0  0  0
    7.6449    1.4368    0.0000 F   0  0  0  0  0  0  0  0  0  0  0  0
    9.1849   -1.2305    0.0000 F   0  0  0  0  0  0  0  0  0  0  0  0
    8.9785    2.2070    0.0000 F   0  0  0  0  0  0  0  0  0  0  0  0
   10.5187   -0.4605    0.0000 F   0  0  0  0  0  0  0  0  0  0  0  0
    6.3112    0.6668    0.0000 F   0  0  0  0  0  0  0  0  0  0  0  0
    7.8512   -2.0005    0.0000 F   0  0  0  0  0  0  0  0  0  0  0  0
   11.8524    0.3095    0.0000 F   0  0  0  0  0  0  0  0  0  0  0  0
   10.3124    2.9770    0.0000 F   0  0  0  0  0  0  0  0  0  0  0  0
    4.9775   -0.1032    0.0000 F   0  0  0  0  0  0  0  0  0  0  0  0
    6.5175   -2.7705    0.0000 F   0  0  0  0  0  0  0  0  0  0  0  0
   13.7497    3.1832    0.0000 F   0  0  0  0  0  0  0  0  0  0  0  0
   13.1861    1.0795    0.0000 F   0  0  0  0  0  0  0  0  0  0  0  0
   11.6461    3.7470    0.0000 F   0  0  0  0  0  0  0  0  0  0  0  0
    4.4137   -3.7470    0.0000 O   0  0  0  0  0  0  0  0  0  0  0  0
    8.4149    0.1032    0.0000 C   0  0  0  0  0  0  0  0  0  0  0  0
    9.7485    0.8732    0.0000 C   0  0  0  0  0  0  0  0  0  0  0  0
    7.0812   -0.6668    0.0000 C   0  0  0  0  0  0  0  0  0  0  0  0
   11.0824    1.6432    0.0000 C   0  0  0  0  0  0  0  0  0  0  0  0
    5.7475   -1.4368    0.0000 C   0  0  0  0  0  0  0  0  0  0  0  0
   12.4161    2.4132    0.0000 C   0  0  0  0  0  0  0  0  0  0  0  0
    4.4137   -2.2070    0.0000 C   0  0  0  0  0  0  0  0  0  0  0  0
  1 22  1  0  0  0  0
  2 16  1  0  0  0  0
  3 16  1  0  0  0  0
  4 17  1  0  0  0  0
  5 17  1  0  0  0  0
  6 18  1  0  0  0  0
  7 18  1  0  0  0  0
  8 19  1  0  0  0  0
  9 19  1  0  0  0  0
 10 20  1  0  0  0  0
 11 20  1  0  0  0  0
 12 21  1  0  0  0  0
 13 21  1  0  0  0  0
 14 21  1  0  0  0  0
 15 22  2  0  0  0  0
 16 17  1  0  0  0  0
 16 18  1  0  0  0  0
 17 19  1  0  0  0  0
 18 20  1  0  0  0  0
 19 21  1  0  0  0  0
 20 22  1  0  0  0  0
M  END
>  <INPUT>
DTXSID80382154

>  <FOUND_BY>
DSSTox_Substance_Id

>  <DTXSID>
DTXSID80382154

>  <PREFERRED_NAME>
Perfluoroheptanoyl chloride

>  <CASRN>
52447-22-0

>  <INCHIKEY>
IAHVCTQMGIVZJU-UHFFFAOYSA-N

>  <IUPAC_NAME>
Tridecafluoroheptanoyl chloride

>  <SMILES>
FC(F)(F)C(F)(F)C(F)(F)C(F)(F)C(F)(F)C(F)(F)C(Cl)=O

>  <INCHI_STRING>
InChI=1S/C7ClF13O/c8-1(22)2(9,10)3(11,12)4(13,14)5(15,16)6(17,18)7(19,20)21

>  <MOLECULAR_FORMULA>
C7ClF13O

>  <AVERAGE_MASS>
382.51

>  <MONOISOTOPIC_MASS>
381.9430084

>  <MOL_FILE>
MOL_FILE

$$$$

  -INDIGO-02112615072D

 20 20  0  0  0  0  0  0  0  0999 V2000
    1.3337    1.6431    0.0000 C   0  0  0  0  0  0  0  0  0  0  0  0
    0.0000    2.4131    0.0000 C   0  0  0  0  0  0  0  0  0  0  0  0
   -1.3335    3.1831    0.0000 C   0  0  0  0  0  0  0  0  0  0  0  0
   -2.6673    3.9531    0.0000 C   0  0  0  0  0  0  0  0  0  0  0  0
    2.6675    2.4131    0.0000 O   0  0  0  0  0  0  0  0  0  0  0  0
    1.3337    0.1031    0.0000 N   0  0  0  0  0  0  0  0  0  0  0  0
    2.6675   -0.6669    0.0000 C   0  0  0  0  0  0  0  0  0  0  0  0
    2.6675   -2.2069    0.0000 C   0  0  0  0  0  0  0  0  0  0  0  0
    4.0010   -2.9769    0.0000 C   0  0  0  0  0  0  0  0  0  0  0  0
    4.0010   -4.5169    0.0000 C   0  0  0  0  0  0  0  0  0  0  0  0
    2.6675   -5.2869    0.0000 C   0  0  0  0  0  0  0  0  0  0  0  0
    1.3337   -4.5169    0.0000 C   0  0  0  0  0  0  0  0  0  0  0  0
    1.3337   -2.9769    0.0000 C   0  0  0  0  0  0  0  0  0  0  0  0
    0.7700    3.7469    0.0000 F   0  0  0  0  0  0  0  0  0  0  0  0
   -0.7700    1.0794    0.0000 F   0  0  0  0  0  0  0  0  0  0  0  0
   -0.5635    4.5169    0.0000 F   0  0  0  0  0  0  0  0  0  0  0  0
   -2.1035    1.8494    0.0000 F   0  0  0  0  0  0  0  0  0  0  0  0
   -4.0010    4.7231    0.0000 F   0  0  0  0  0  0  0  0  0  0  0  0
   -1.8973    5.2869    0.0000 F   0  0  0  0  0  0  0  0  0  0  0  0
   -3.4373    2.6194    0.0000 F   0  0  0  0  0  0  0  0  0  0  0  0
  1  2  1  0  0  0  0
  2  3  1  0  0  0  0
  3  4  1  0  0  0  0
  6  1  1  0  0  0  0
  5  1  2  0  0  0  0
  8  9  2  0  0  0  0
  9 10  1  0  0  0  0
 10 11  2  0  0  0  0
 11 12  1  0  0  0  0
 12 13  2  0  0  0  0
  8 13  1  0  0  0  0
  7  8  1  0  0  0  0
  6  7  1  0  0  0  0
  2 14  1  0  0  0  0
  2 15  1  0  0  0  0
  3 16  1  0  0  0  0
  3 17  1  0  0  0  0
  4 18  1  0  0  0  0
  4 19  1  0  0  0  0
  4 20  1  0  0  0  0
M  END
>  <INPUT>
DTXSID80880160

>  <FOUND_BY>
DSSTox_Substance_Id

>  <DTXSID>
DTXSID80880160

>  <PREFERRED_NAME>
N-(Phenylmethyl)perfluorobutanamide

>  <CASRN>
560-02-1

>  <INCHIKEY>
JGYHLDPCXQPJCA-UHFFFAOYSA-N

>  <IUPAC_NAME>
N-Benzyl-2,2,3,3,4,4,4-heptafluorobutanamide

>  <SMILES>
FC(F)(F)C(F)(F)C(F)(F)C(=O)NCC1=CC=CC=C1

>  <INCHI_STRING>
InChI=1S/C11H8F7NO/c12-9(13,10(14,15)11(16,17)18)8(20)19-6-7-4-2-1-3-5-7/h1-5H,6H2,(H,19,20)

>  <MOLECULAR_FORMULA>
C11H8F7NO

>  <AVERAGE_MASS>
303.18

>  <MONOISOTOPIC_MASS>
303.049411023

>  <MOL_FILE>
MOL_FILE

$$$$

  -INDIGO-02112615072D

 20 19  0  0  0  0  0  0  0  0999 V2000
   10.3124    1.7186    0.0000 F   0  0  0  0  0  0  0  0  0  0  0  0
   11.8524   -0.9486    0.0000 F   0  0  0  0  0  0  0  0  0  0  0  0
    8.9785    0.9486    0.0000 F   0  0  0  0  0  0  0  0  0  0  0  0
   10.5187   -1.7186    0.0000 F   0  0  0  0  0  0  0  0  0  0  0  0
   11.6461    2.4886    0.0000 F   0  0  0  0  0  0  0  0  0  0  0  0
   13.1861   -0.1786    0.0000 F   0  0  0  0  0  0  0  0  0  0  0  0
   15.0834    1.1551    0.0000 F   0  0  0  0  0  0  0  0  0  0  0  0
   13.7497    3.4651    0.0000 F   0  0  0  0  0  0  0  0  0  0  0  0
    4.9775    0.1786    0.0000 F   0  0  0  0  0  0  0  0  0  0  0  0
    6.5175   -2.4886    0.0000 F   0  0  0  0  0  0  0  0  0  0  0  0
    3.0800   -1.1551    0.0000 F   0  0  0  0  0  0  0  0  0  0  0  0
    4.4137   -3.4651    0.0000 F   0  0  0  0  0  0  0  0  0  0  0  0
    7.0812   -0.3851    0.0000 O   0  0  0  0  0  0  0  0  0  0  0  0
   11.0824    0.3851    0.0000 C   0  0  0  0  0  0  0  0  0  0  0  0
    9.7485   -0.3851    0.0000 C   0  0  0  0  0  0  0  0  0  0  0  0
   12.4161    1.1551    0.0000 C   0  0  0  0  0  0  0  0  0  0  0  0
    8.4149   -1.1551    0.0000 C   0  0  0  0  0  0  0  0  0  0  0  0
   13.7497    1.9251    0.0000 C   0  0  0  0  0  0  0  0  0  0  0  0
    5.7475   -1.1551    0.0000 C   0  0  0  0  0  0  0  0  0  0  0  0
    4.4137   -1.9251    0.0000 C   0  0  0  0  0  0  0  0  0  0  0  0
  1 14  1  0  0  0  0
  2 14  1  0  0  0  0
  3 15  1  0  0  0  0
  4 15  1  0  0  0  0
  5 16  1  0  0  0  0
  6 16  1  0  0  0  0
  7 18  1  0  0  0  0
  8 18  1  0  0  0  0
  9 19  1  0  0  0  0
 10 19  1  0  0  0  0
 11 20  1  0  0  0  0
 12 20  1  0  0  0  0
 13 17  1  0  0  0  0
 13 19  1  0  0  0  0
 14 15  1  0  0  0  0
 14 16  1  0  0  0  0
 15 17  1  0  0  0  0
 16 18  1  0  0  0  0
 19 20  1  0  0  0  0
M  END
>  <INPUT>
DTXSID20382158

>  <FOUND_BY>
DSSTox_Substance_Id

>  <DTXSID>
DTXSID20382158

>  <PREFERRED_NAME>
1H,1H,5H-Perfluoropentyl-1,1,2,2-tetrafluoroethylether

>  <CASRN>
16627-71-7

>  <INCHIKEY>
ZNBGTBKGFZMWKR-UHFFFAOYSA-N

>  <IUPAC_NAME>
1,1,2,2,3,3,4,4-Octafluoro-5-(1,1,2,2-tetrafluoroethoxy)pentane

>  <SMILES>
FC(F)C(F)(F)OCC(F)(F)C(F)(F)C(F)(F)C(F)F

>  <INCHI_STRING>
InChI=1S/C7H4F12O/c8-2(9)5(14,15)7(18,19)4(12,13)1-20-6(16,17)3(10)11/h2-3H,1H2

>  <MOLECULAR_FORMULA>
C7H4F12O

>  <AVERAGE_MASS>
332.089

>  <MONOISOTOPIC_MASS>
332.007052705

>  <MOL_FILE>
MOL_FILE

$$$$

  -INDIGO-02112615072D

 24 23  0  0  0  0  0  0  0  0999 V2000
    8.4040   -1.4993    0.0000 F   0  0  0  0  0  0  0  0  0  0  0  0
    8.4040    1.5807    0.0000 F   0  0  0  0  0  0  0  0  0  0  0  0
    9.9440   -1.4993    0.0000 F   0  0  0  0  0  0  0  0  0  0  0  0
    9.9440    1.5807    0.0000 F   0  0  0  0  0  0  0  0  0  0  0  0
    6.8640   -1.4993    0.0000 F   0  0  0  0  0  0  0  0  0  0  0  0
    6.8640    1.5807    0.0000 F   0  0  0  0  0  0  0  0  0  0  0  0
   11.4840   -1.4993    0.0000 F   0  0  0  0  0  0  0  0  0  0  0  0
   11.4840    1.5807    0.0000 F   0  0  0  0  0  0  0  0  0  0  0  0
    5.3240   -1.4993    0.0000 F   0  0  0  0  0  0  0  0  0  0  0  0
    5.3240    1.5807    0.0000 F   0  0  0  0  0  0  0  0  0  0  0  0
   13.0240   -1.4993    0.0000 F   0  0  0  0  0  0  0  0  0  0  0  0
   13.0240    1.5807    0.0000 F   0  0  0  0  0  0  0  0  0  0  0  0
    2.2440    0.0407    0.0000 F   0  0  0  0  0  0  0  0  0  0  0  0
    3.7840   -1.4993    0.0000 F   0  0  0  0  0  0  0  0  0  0  0  0
    3.7840    1.5807    0.0000 F   0  0  0  0  0  0  0  0  0  0  0  0
   15.3340    1.3744    0.0000 N   0  0  0  0  0  0  0  0  0  0  0  0
    8.4040    0.0407    0.0000 C   0  0  0  0  0  0  0  0  0  0  0  0
    9.9440    0.0407    0.0000 C   0  0  0  0  0  0  0  0  0  0  0  0
    6.8640    0.0407    0.0000 C   0  0  0  0  0  0  0  0  0  0  0  0
   11.4840    0.0407    0.0000 C   0  0  0  0  0  0  0  0  0  0  0  0
   13.0240    0.0407    0.0000 C   0  0  0  0  0  0  0  0  0  0  0  0
    5.3240    0.0407    0.0000 C   0  0  0  0  0  0  0  0  0  0  0  0
   14.5640    0.0407    0.0000 C   0  0  0  0  0  0  0  0  0  0  0  0
    3.7840    0.0407    0.0000 C   0  0  0  0  0  0  0  0  0  0  0  0
  1 17  1  0  0  0  0
  2 17  1  0  0  0  0
  3 18  1  0  0  0  0
  4 18  1  0  0  0  0
  5 19  1  0  0  0  0
  6 19  1  0  0  0  0
  7 20  1  0  0  0  0
  8 20  1  0  0  0  0
  9 22  1  0  0  0  0
 10 22  1  0  0  0  0
 11 21  1  0  0  0  0
 12 21  1  0  0  0  0
 13 24  1  0  0  0  0
 14 24  1  0  0  0  0
 15 24  1  0  0  0  0
 16 23  1  0  0  0  0
 17 18  1  0  0  0  0
 17 19  1  0  0  0  0
 18 20  1  0  0  0  0
 19 22  1  0  0  0  0
 20 21  1  0  0  0  0
 21 23  1  0  0  0  0
 22 24  1  0  0  0  0
M  END
>  <INPUT>
DTXSID50184723

>  <FOUND_BY>
DSSTox_Substance_Id

>  <DTXSID>
DTXSID50184723

>  <PREFERRED_NAME>
1H,1H-Perfluorooctylamine

>  <CASRN>
307-29-9

>  <INCHIKEY>
HZCZXRSVKNFILZ-UHFFFAOYSA-N

>  <IUPAC_NAME>
2,2,3,3,4,4,5,5,6,6,7,7,8,8,8-Pentadecafluorooctan-1-amine

>  <SMILES>
NCC(F)(F)C(F)(F)C(F)(F)C(F)(F)C(F)(F)C(F)(F)C(F)(F)F

>  <INCHI_STRING>
InChI=1S/C8H4F15N/c9-2(10,1-24)3(11,12)4(13,14)5(15,16)6(17,18)7(19,20)8(21,22)23/h1,24H2

>  <MOLECULAR_FORMULA>
C8H4F15N

>  <AVERAGE_MASS>
399.103

>  <MONOISOTOPIC_MASS>
399.010421578

>  <MOL_FILE>
MOL_FILE

$$$$

  -INDIGO-02112615072D

 28 27  0  0  0  0  0  0  0  0999 V2000
    6.6840    0.8901    0.0000 C   0  0  0  0  0  0  0  0  0  0  0  0
    5.1525    0.7292    0.0000 C   0  0  0  0  0  0  0  0  0  0  0  0
    3.6209    0.5682    0.0000 C   0  0  0  0  0  0  0  0  0  0  0  0
    2.0894    0.4072    0.0000 C   0  0  0  0  0  0  0  0  0  0  0  0
    0.5578    0.2462    0.0000 C   0  0  0  0  0  0  0  0  0  0  0  0
   -0.9738    0.0853    0.0000 C   0  0  0  0  0  0  0  0  0  0  0  0
   -2.5053   -0.0757    0.0000 C   0  0  0  0  0  0  0  0  0  0  0  0
   -4.0369   -0.2367    0.0000 C   0  0  0  0  0  0  0  0  0  0  0  0
   -5.5685   -0.3977    0.0000 C   0  0  0  0  0  0  0  0  0  0  0  0
    7.5892   -0.3558    0.0000 O   0  0  0  0  0  0  0  0  0  0  0  0
    7.3104    2.2970    0.0000 O   0  0  0  0  0  0  0  0  0  0  0  0
    4.9915    2.2607    0.0000 F   0  0  0  0  0  0  0  0  0  0  0  0
    5.3135   -0.8024    0.0000 F   0  0  0  0  0  0  0  0  0  0  0  0
    3.4599    2.0998    0.0000 F   0  0  0  0  0  0  0  0  0  0  0  0
    3.7819   -0.9634    0.0000 F   0  0  0  0  0  0  0  0  0  0  0  0
    1.9284    1.9388    0.0000 F   0  0  0  0  0  0  0  0  0  0  0  0
    2.2503   -1.1243    0.0000 F   0  0  0  0  0  0  0  0  0  0  0  0
    0.3968    1.7778    0.0000 F   0  0  0  0  0  0  0  0  0  0  0  0
    0.7188   -1.2853    0.0000 F   0  0  0  0  0  0  0  0  0  0  0  0
   -1.1347    1.6168    0.0000 F   0  0  0  0  0  0  0  0  0  0  0  0
   -0.8128   -1.4463    0.0000 F   0  0  0  0  0  0  0  0  0  0  0  0
   -2.6663    1.4559    0.0000 F   0  0  0  0  0  0  0  0  0  0  0  0
   -2.3444   -1.6073    0.0000 F   0  0  0  0  0  0  0  0  0  0  0  0
   -4.1979    1.2949    0.0000 F   0  0  0  0  0  0  0  0  0  0  0  0
   -3.8759   -1.7682    0.0000 F   0  0  0  0  0  0  0  0  0  0  0  0
   -7.1000   -0.5586    0.0000 F   0  0  0  0  0  0  0  0  0  0  0  0
   -5.7294    1.1339    0.0000 F   0  0  0  0  0  0  0  0  0  0  0  0
   -5.4075   -1.9292    0.0000 F   0  0  0  0  0  0  0  0  0  0  0  0
  1  2  1  0  0  0  0
  1 11  1  0  0  0  0
  1 10  2  0  0  0  0
  2  3  1  0  0  0  0
  2 12  1  0  0  0  0
  2 13  1  0  0  0  0
  3  4  1  0  0  0  0
  3 14  1  0  0  0  0
  3 15  1  0  0  0  0
  4  5  1  0  0  0  0
  4 16  1  0  0  0  0
  4 17  1  0  0  0  0
  5  6  1  0  0  0  0
  5 18  1  0  0  0  0
  5 19  1  0  0  0  0
  6  7  1  0  0  0  0
  6 20  1  0  0  0  0
  6 21  1  0  0  0  0
  7  8  1  0  0  0  0
  7 22  1  0  0  0  0
  7 23  1  0  0  0  0
  8  9  1  0  0  0  0
  8 24  1  0  0  0  0
  8 25  1  0  0  0  0
  9 26  1  0  0  0  0
  9 27  1  0  0  0  0
  9 28  1  0  0  0  0
M  END
>  <INPUT>
DTXSID8031863

>  <FOUND_BY>
DSSTox_Substance_Id

>  <DTXSID>
DTXSID8031863

>  <PREFERRED_NAME>
Perfluorononanoic acid

>  <CASRN>
375-95-1

>  <INCHIKEY>
UZUFPBIDKMEQEQ-UHFFFAOYSA-N

>  <IUPAC_NAME>
Heptadecafluorononanoic acid

>  <SMILES>
OC(=O)C(F)(F)C(F)(F)C(F)(F)C(F)(F)C(F)(F)C(F)(F)C(F)(F)C(F)(F)F

>  <INCHI_STRING>
InChI=1S/C9HF17O2/c10-2(11,1(27)28)3(12,13)4(14,15)5(16,17)6(18,19)7(20,21)8(22,23)9(24,25)26/h(H,27,28)


>  <MOLECULAR_FORMULA>
C9HF17O2

>  <AVERAGE_MASS>
464.078

>  <MONOISOTOPIC_MASS>
463.970508043

>  <MOL_FILE>
MOL_FILE

$$$$

  -INDIGO-02112615072D

 32 31  0  0  0  0  0  0  0  0999 V2000
   10.7800  -13.3368    0.0000 F   0  0  0  0  0  0  0  0  0  0  0  0
    9.2400  -13.3368    0.0000 C   0  0  0  0  0  0  0  0  0  0  0  0
    8.4700  -14.6705    0.0000 F   0  0  0  0  0  0  0  0  0  0  0  0
    8.4700  -12.0030    0.0000 C   0  0  0  0  0  0  0  0  0  0  0  0
    9.8037  -11.2330    0.0000 F   0  0  0  0  0  0  0  0  0  0  0  0
    7.1363  -12.7730    0.0000 F   0  0  0  0  0  0  0  0  0  0  0  0
    7.7000  -10.6695    0.0000 C   0  0  0  0  0  0  0  0  0  0  0  0
    9.0337   -9.8995    0.0000 F   0  0  0  0  0  0  0  0  0  0  0  0
    6.3663  -11.4395    0.0000 F   0  0  0  0  0  0  0  0  0  0  0  0
    6.9300   -9.3358    0.0000 C   0  0  0  0  0  0  0  0  0  0  0  0
    8.2637   -8.5658    0.0000 F   0  0  0  0  0  0  0  0  0  0  0  0
    5.5963  -10.1058    0.0000 F   0  0  0  0  0  0  0  0  0  0  0  0
    6.1600   -8.0020    0.0000 C   0  0  0  0  0  0  0  0  0  0  0  0
    7.4937   -7.2320    0.0000 F   0  0  0  0  0  0  0  0  0  0  0  0
    4.8263   -8.7720    0.0000 F   0  0  0  0  0  0  0  0  0  0  0  0
    5.3900   -6.6685    0.0000 C   0  0  0  0  0  0  0  0  0  0  0  0
    6.7237   -5.8985    0.0000 F   0  0  0  0  0  0  0  0  0  0  0  0
    4.0563   -7.4385    0.0000 F   0  0  0  0  0  0  0  0  0  0  0  0
    4.6200   -5.3347    0.0000 C   0  0  0  0  0  0  0  0  0  0  0  0
    5.9537   -4.5647    0.0000 F   0  0  0  0  0  0  0  0  0  0  0  0
    3.2863   -6.1047    0.0000 F   0  0  0  0  0  0  0  0  0  0  0  0
    3.8500   -4.0010    0.0000 C   0  0  0  0  0  0  0  0  0  0  0  0
    5.1837   -3.2310    0.0000 F   0  0  0  0  0  0  0  0  0  0  0  0
    2.5163   -4.7710    0.0000 F   0  0  0  0  0  0  0  0  0  0  0  0
    3.0800   -2.6673    0.0000 C   0  0  0  0  0  0  0  0  0  0  0  0
    4.4137   -1.8973    0.0000 F   0  0  0  0  0  0  0  0  0  0  0  0
    1.7463   -3.4373    0.0000 F   0  0  0  0  0  0  0  0  0  0  0  0
    2.3100   -1.3337    0.0000 C   0  0  0  0  0  0  0  0  0  0  0  0
    3.6437   -0.5637    0.0000 F   0  0  0  0  0  0  0  0  0  0  0  0
    0.9763   -2.1037    0.0000 F   0  0  0  0  0  0  0  0  0  0  0  0
    1.5400    0.0000    0.0000 C   0  0  0  0  0  0  0  0  0  0  0  0
    0.0000    0.0000    0.0000 O   0  0  0  0  0  0  0  0  0  0  0  0
  1  2  1  0  0  0  0
  2  3  1  0  0  0  0
  2  4  1  0  0  0  0
  4  5  1  0  0  0  0
  4  6  1  0  0  0  0
  4  7  1  0  0  0  0
  7  8  1  0  0  0  0
  7  9  1  0  0  0  0
  7 10  1  0  0  0  0
 10 11  1  0  0  0  0
 10 12  1  0  0  0  0
 10 13  1  0  0  0  0
 13 14  1  0  0  0  0
 13 15  1  0  0  0  0
 13 16  1  0  0  0  0
 16 17  1  0  0  0  0
 16 18  1  0  0  0  0
 16 19  1  0  0  0  0
 19 20  1  0  0  0  0
 19 21  1  0  0  0  0
 19 22  1  0  0  0  0
 22 23  1  0  0  0  0
 22 24  1  0  0  0  0
 22 25  1  0  0  0  0
 25 26  1  0  0  0  0
 25 27  1  0  0  0  0
 25 28  1  0  0  0  0
 28 29  1  0  0  0  0
 28 30  1  0  0  0  0
 28 31  1  0  0  0  0
 31 32  1  0  0  0  0
M  END
>  <INPUT>
DTXSID0059798

>  <FOUND_BY>
DSSTox_Substance_Id

>  <DTXSID>
DTXSID0059798

>  <PREFERRED_NAME>
1H,1H,11H-Eicosafluoro-1-undecanol

>  <CASRN>
307-70-0

>  <INCHIKEY>
GJYLSFCFHFUODO-UHFFFAOYSA-N

>  <IUPAC_NAME>
2,2,3,3,4,4,5,5,6,6,7,7,8,8,9,9,10,10,11,11-Icosafluoroundecan-1-ol

>  <SMILES>
OCC(F)(F)C(F)(F)C(F)(F)C(F)(F)C(F)(F)C(F)(F)C(F)(F)C(F)(F)C(F)(F)C(F)F

>  <INCHI_STRING>
InChI=1S/C11H4F20O/c12-2(13)4(16,17)6(20,21)8(24,25)10(28,29)11(30,31)9(26,27)7(22,23)5(18,19)3(14,15)1-32/h2,32H,1H2

>  <MOLECULAR_FORMULA>
C11H4F20O

>  <AVERAGE_MASS>
532.12

>  <MONOISOTOPIC_MASS>
531.994278009

>  <MOL_FILE>
MOL_FILE

$$$$

  -INDIGO-02112615072D

 24 22  0  0  0  0  0  0  0  0999 V2000
    8.5183   -3.1850    0.0000 C   0  0  0  0  0  0  0  0  0  0  0  0
   10.0583   -3.1850    0.0000 C   0  0  0  0  0  0  0  0  0  0  0  0
   11.5983   -3.1850    0.0000 C   0  0  0  0  0  0  0  0  0  0  0  0
   13.1383   -3.1850    0.0000 C   0  0  0  0  0  0  0  0  0  0  0  0
   14.6783   -3.1850    0.0000 C   0  0  0  0  0  0  0  0  0  0  0  0
   16.2183   -3.1850    0.0000 C   0  0  0  0  0  0  0  0  0  0  0  0
    6.9783   -3.1850    0.0000 S   0  0  0  0  0  0  0  0  0  0  0  0
    6.9783   -1.6450    0.0000 O   0  0  0  0  0  0  0  0  0  0  0  0
    5.4383   -3.1850    0.0000 O   0  0  0  0  0  0  0  0  0  0  0  0
    6.9783   -4.7250    0.0000 O   0  0  0  0  0  0  0  0  0  0  0  0
    8.5183   -1.6450    0.0000 F   0  0  0  0  0  0  0  0  0  0  0  0
    8.5183   -4.7250    0.0000 F   0  0  0  0  0  0  0  0  0  0  0  0
   10.0583   -1.6450    0.0000 F   0  0  0  0  0  0  0  0  0  0  0  0
   10.0583   -4.7250    0.0000 F   0  0  0  0  0  0  0  0  0  0  0  0
   11.5983   -1.6450    0.0000 F   0  0  0  0  0  0  0  0  0  0  0  0
   11.5983   -4.7250    0.0000 F   0  0  0  0  0  0  0  0  0  0  0  0
   13.1383   -1.6450    0.0000 F   0  0  0  0  0  0  0  0  0  0  0  0
   13.1383   -4.7250    0.0000 F   0  0  0  0  0  0  0  0  0  0  0  0
   14.6783   -1.6450    0.0000 F   0  0  0  0  0  0  0  0  0  0  0  0
   14.6783   -4.7250    0.0000 F   0  0  0  0  0  0  0  0  0  0  0  0
   17.7583   -3.1850    0.0000 F   0  0  0  0  0  0  0  0  0  0  0  0
   16.2183   -1.6450    0.0000 F   0  0  0  0  0  0  0  0  0  0  0  0
   16.2183   -4.7250    0.0000 F   0  0  0  0  0  0  0  0  0  0  0  0
    3.8983   -3.1850    0.0000 K   0  0  0  0  0  0  0  0  0  0  0  0
  1  2  1  0  0  0  0
  1  7  1  0  0  0  0
  1 11  1  0  0  0  0
  1 12  1  0  0  0  0
  2  3  1  0  0  0  0
  2 13  1  0  0  0  0
  2 14  1  0  0  0  0
  3  4  1  0  0  0  0
  3 15  1  0  0  0  0
  3 16  1  0  0  0  0
  4  5  1  0  0  0  0
  4 17  1  0  0  0  0
  4 18  1  0  0  0  0
  5  6  1  0  0  0  0
  5 19  1  0  0  0  0
  5 20  1  0  0  0  0
  6 21  1  0  0  0  0
  6 22  1  0  0  0  0
  6 23  1  0  0  0  0
  7  8  2  0  0  0  0
  7  9  1  0  0  0  0
  7 10  2  0  0  0  0
M  CHG  2   9  -1  24   1
M  END
>  <INPUT>
DTXSID3037709

>  <FOUND_BY>
DSSTox_Substance_Id

>  <DTXSID>
DTXSID3037709

>  <PREFERRED_NAME>
Potassium perfluorohexanesulfonate

>  <CASRN>
3871-99-6

>  <INCHIKEY>
RSCGQEBKFSGWJT-UHFFFAOYSA-M

>  <IUPAC_NAME>
Potassium tridecafluorohexane-1-sulfonate

>  <SMILES>
[K+].[O-]S(=O)(=O)C(F)(F)C(F)(F)C(F)(F)C(F)(F)C(F)(F)C(F)(F)F

>  <INCHI_STRING>
InChI=1S/C6HF13O3S.K/c7-1(8,3(11,12)5(15,16)17)2(9,10)4(13,14)6(18,19)23(20,21)22;/h(H,20,21,22);/q;+1/p-1


>  <MOLECULAR_FORMULA>
C6F13KO3S

>  <AVERAGE_MASS>
438.2

>  <MONOISOTOPIC_MASS>
437.89976264

>  <MOL_FILE>
MOL_FILE

$$$$

  -INDIGO-02112615072D

 16 15  0  0  0  0  0  0  0  0999 V2000
    7.1381    1.4368    0.0000 F   0  0  0  0  0  0  0  0  0  0  0  0
    8.6781   -1.2305    0.0000 F   0  0  0  0  0  0  0  0  0  0  0  0
    8.4717    2.2070    0.0000 F   0  0  0  0  0  0  0  0  0  0  0  0
   10.0117   -0.4605    0.0000 F   0  0  0  0  0  0  0  0  0  0  0  0
    5.8044    0.6668    0.0000 F   0  0  0  0  0  0  0  0  0  0  0  0
    7.3444   -2.0005    0.0000 F   0  0  0  0  0  0  0  0  0  0  0  0
   11.9091    2.4132    0.0000 F   0  0  0  0  0  0  0  0  0  0  0  0
   11.3456    0.3095    0.0000 F   0  0  0  0  0  0  0  0  0  0  0  0
    9.8056    2.9770    0.0000 F   0  0  0  0  0  0  0  0  0  0  0  0
    5.2407   -2.9770    0.0000 O   0  0  0  0  0  0  0  0  0  0  0  0
    3.9069   -0.6668    0.0000 N   0  0  0  0  0  0  0  0  0  0  0  0
    7.9081    0.1032    0.0000 C   0  0  0  0  0  0  0  0  0  0  0  0
    9.2417    0.8732    0.0000 C   0  0  0  0  0  0  0  0  0  0  0  0
    6.5744   -0.6668    0.0000 C   0  0  0  0  0  0  0  0  0  0  0  0
   10.5756    1.6432    0.0000 C   0  0  0  0  0  0  0  0  0  0  0  0
    5.2407   -1.4368    0.0000 C   0  0  0  0  0  0  0  0  0  0  0  0
  1 12  1  0  0  0  0
  2 12  1  0  0  0  0
  3 13  1  0  0  0  0
  4 13  1  0  0  0  0
  5 14  1  0  0  0  0
  6 14  1  0  0  0  0
  7 15  1  0  0  0  0
  8 15  1  0  0  0  0
  9 15  1  0  0  0  0
 10 16  2  0  0  0  0
 11 16  1  0  0  0  0
 12 13  1  0  0  0  0
 12 14  1  0  0  0  0
 13 15  1  0  0  0  0
 14 16  1  0  0  0  0
M  END
>  <INPUT>
DTXSID60400587

>  <FOUND_BY>
DSSTox_Substance_Id

>  <DTXSID>
DTXSID60400587

>  <PREFERRED_NAME>
Nonafluoropentanamide

>  <CASRN>
13485-61-5

>  <INCHIKEY>
ZKWQYYCKXAKLPJ-UHFFFAOYSA-N

>  <IUPAC_NAME>
2,2,3,3,4,4,5,5,5-Nonafluoropentanamide

>  <SMILES>
NC(=O)C(F)(F)C(F)(F)C(F)(F)C(F)(F)F

>  <INCHI_STRING>
InChI=1S/C5H2F9NO/c6-2(7,1(15)16)3(8,9)4(10,11)5(12,13)14/h(H2,15,16)

>  <MOLECULAR_FORMULA>
C5H2F9NO

>  <AVERAGE_MASS>
263.063

>  <MONOISOTOPIC_MASS>
262.999267155

>  <MOL_FILE>
MOL_FILE

$$$$

  -INDIGO-02112615072D

 25 24  0  0  0  0  0  0  0  0999 V2000
   -6.5510    1.2736    0.0000 O   0  0  0  0  0  0  0  0  0  0  0  0
   -5.7695   -0.0533    0.0000 C   0  0  0  0  0  0  0  0  0  0  0  0
   -6.5280   -1.3936    0.0000 O   0  0  0  0  0  0  0  0  0  0  0  0
   -4.2294   -0.0400    0.0000 C   0  0  0  0  0  0  0  0  0  0  0  0
   -4.2160   -1.5799    0.0000 F   0  0  0  0  0  0  0  0  0  0  0  0
   -4.2427    1.5001    0.0000 F   0  0  0  0  0  0  0  0  0  0  0  0
   -2.6893   -0.0267    0.0000 C   0  0  0  0  0  0  0  0  0  0  0  0
   -2.6760   -1.5666    0.0000 F   0  0  0  0  0  0  0  0  0  0  0  0
   -2.7027    1.5133    0.0000 F   0  0  0  0  0  0  0  0  0  0  0  0
   -1.1492   -0.0134    0.0000 C   0  0  0  0  0  0  0  0  0  0  0  0
   -1.1359   -1.5533    0.0000 F   0  0  0  0  0  0  0  0  0  0  0  0
   -1.1625    1.5266    0.0000 F   0  0  0  0  0  0  0  0  0  0  0  0
    0.3907   -0.0001    0.0000 C   0  0  0  0  0  0  0  0  0  0  0  0
    0.4040   -1.5400    0.0000 F   0  0  0  0  0  0  0  0  0  0  0  0
    0.3774    1.5400    0.0000 F   0  0  0  0  0  0  0  0  0  0  0  0
    1.9307    0.0133    0.0000 C   0  0  0  0  0  0  0  0  0  0  0  0
    1.9441   -1.5266    0.0000 F   0  0  0  0  0  0  0  0  0  0  0  0
    1.9174    1.5533    0.0000 F   0  0  0  0  0  0  0  0  0  0  0  0
    3.4709    0.0266    0.0000 C   0  0  0  0  0  0  0  0  0  0  0  0
    3.4842   -1.5133    0.0000 F   0  0  0  0  0  0  0  0  0  0  0  0
    3.4576    1.5666    0.0000 F   0  0  0  0  0  0  0  0  0  0  0  0
    5.0109    0.0399    0.0000 C   0  0  0  0  0  0  0  0  0  0  0  0
    6.5510    0.0532    0.0000 F   0  0  0  0  0  0  0  0  0  0  0  0
    5.0242   -1.5000    0.0000 F   0  0  0  0  0  0  0  0  0  0  0  0
    4.9976    1.5799    0.0000 F   0  0  0  0  0  0  0  0  0  0  0  0
  2  1  1  0  0  0  0
  3  2  2  0  0  0  0
  4  2  1  0  0  0  0
  5  4  1  0  0  0  0
  6  4  1  0  0  0  0
  7  4  1  0  0  0  0
  8  7  1  0  0  0  0
  9  7  1  0  0  0  0
 10  7  1  0  0  0  0
 11 10  1  0  0  0  0
 12 10  1  0  0  0  0
 13 10  1  0  0  0  0
 14 13  1  0  0  0  0
 15 13  1  0  0  0  0
 16 13  1  0  0  0  0
 17 16  1  0  0  0  0
 18 16  1  0  0  0  0
 19 16  1  0  0  0  0
 20 19  1  0  0  0  0
 21 19  1  0  0  0  0
 22 19  1  0  0  0  0
 23 22  1  0  0  0  0
 24 22  1  0  0  0  0
 25 22  1  0  0  0  0
M  END
>  <INPUT>
DTXSID8031865

>  <FOUND_BY>
DSSTox_Substance_Id

>  <DTXSID>
DTXSID8031865

>  <PREFERRED_NAME>
Perfluorooctanoic acid

>  <CASRN>
335-67-1

>  <INCHIKEY>
SNGREZUHAYWORS-UHFFFAOYSA-N

>  <IUPAC_NAME>
Pentadecafluorooctanoic acid

>  <SMILES>
OC(=O)C(F)(F)C(F)(F)C(F)(F)C(F)(F)C(F)(F)C(F)(F)C(F)(F)F

>  <INCHI_STRING>
InChI=1S/C8HF15O2/c9-2(10,1(24)25)3(11,12)4(13,14)5(15,16)6(17,18)7(19,20)8(21,22)23/h(H,24,25)


>  <MOLECULAR_FORMULA>
C8HF15O2

>  <AVERAGE_MASS>
414.07

>  <MONOISOTOPIC_MASS>
413.973701717

>  <MOL_FILE>
MOL_FILE

$$$$

  -INDIGO-02112615072D

 21 20  0  0  0  0  0  0  0  0999 V2000
    8.4717    0.9486    0.0000 F   0  0  0  0  0  0  0  0  0  0  0  0
   10.0117   -1.7186    0.0000 F   0  0  0  0  0  0  0  0  0  0  0  0
    9.8056    1.7186    0.0000 F   0  0  0  0  0  0  0  0  0  0  0  0
   11.3456   -0.9486    0.0000 F   0  0  0  0  0  0  0  0  0  0  0  0
    7.1381    0.1786    0.0000 F   0  0  0  0  0  0  0  0  0  0  0  0
    8.6781   -2.4886    0.0000 F   0  0  0  0  0  0  0  0  0  0  0  0
   12.6793   -0.1786    0.0000 F   0  0  0  0  0  0  0  0  0  0  0  0
   11.1391    2.4886    0.0000 F   0  0  0  0  0  0  0  0  0  0  0  0
    5.8044   -0.5914    0.0000 F   0  0  0  0  0  0  0  0  0  0  0  0
    7.3444   -3.2586    0.0000 F   0  0  0  0  0  0  0  0  0  0  0  0
   14.5766    2.6951    0.0000 F   0  0  0  0  0  0  0  0  0  0  0  0
   14.0129    0.5914    0.0000 F   0  0  0  0  0  0  0  0  0  0  0  0
   12.4729    3.2586    0.0000 F   0  0  0  0  0  0  0  0  0  0  0  0
    3.9069   -1.9251    0.0000 N   0  0  0  0  0  0  0  0  0  0  0  0
    9.2417   -0.3851    0.0000 C   0  0  0  0  0  0  0  0  0  0  0  0
   10.5756    0.3851    0.0000 C   0  0  0  0  0  0  0  0  0  0  0  0
    7.9081   -1.1551    0.0000 C   0  0  0  0  0  0  0  0  0  0  0  0
    6.5744   -1.9251    0.0000 C   0  0  0  0  0  0  0  0  0  0  0  0
   11.9091    1.1551    0.0000 C   0  0  0  0  0  0  0  0  0  0  0  0
    5.2407   -2.6951    0.0000 C   0  0  0  0  0  0  0  0  0  0  0  0
   13.2429    1.9251    0.0000 C   0  0  0  0  0  0  0  0  0  0  0  0
  1 15  1  0  0  0  0
  2 15  1  0  0  0  0
  3 16  1  0  0  0  0
  4 16  1  0  0  0  0
  5 17  1  0  0  0  0
  6 17  1  0  0  0  0
  7 19  1  0  0  0  0
  8 19  1  0  0  0  0
  9 18  1  0  0  0  0
 10 18  1  0  0  0  0
 11 21  1  0  0  0  0
 12 21  1  0  0  0  0
 13 21  1  0  0  0  0
 14 20  1  0  0  0  0
 15 16  1  0  0  0  0
 15 17  1  0  0  0  0
 16 19  1  0  0  0  0
 17 18  1  0  0  0  0
 18 20  1  0  0  0  0
 19 21  1  0  0  0  0
M  END
>  <INPUT>
DTXSID10379835

>  <FOUND_BY>
DSSTox_Substance_Id

>  <DTXSID>
DTXSID10379835

>  <PREFERRED_NAME>
1H,1H-Perfluoroheptylamine

>  <CASRN>
423-49-4

>  <INCHIKEY>
RWJCANHSJXNRDM-UHFFFAOYSA-N

>  <IUPAC_NAME>
2,2,3,3,4,4,5,5,6,6,7,7,7-Tridecafluoroheptan-1-amine

>  <SMILES>
NCC(F)(F)C(F)(F)C(F)(F)C(F)(F)C(F)(F)C(F)(F)F

>  <INCHI_STRING>
InChI=1S/C7H4F13N/c8-2(9,1-21)3(10,11)4(12,13)5(14,15)6(16,17)7(18,19)20/h1,21H2

>  <MOLECULAR_FORMULA>
C7H4F13N

>  <AVERAGE_MASS>
349.095

>  <MONOISOTOPIC_MASS>
349.013615252

>  <MOL_FILE>
MOL_FILE

$$$$

  -INDIGO-02112615072D

  8  7  0  0  0  0  0  0  0  0999 V2000
    1.5400   -3.0986    0.0000 S   0  0  0  0  0  0  0  0  0  0  0  0
    1.5400   -1.5400    0.0000 C   0  0  0  0  0  0  0  0  0  0  0  0
    3.0800   -3.0986    0.0000 O   0  0  0  0  0  0  0  0  0  0  0  0
    1.5400   -4.6386    0.0000 O   0  0  0  0  0  0  0  0  0  0  0  0
    0.0000   -3.0986    0.0000 O   0  0  0  0  0  0  0  0  0  0  0  0
    0.0000   -1.5400    0.0000 F   0  0  0  0  0  0  0  0  0  0  0  0
    3.0800   -1.5400    0.0000 F   0  0  0  0  0  0  0  0  0  0  0  0
    1.5400    0.0000    0.0000 F   0  0  0  0  0  0  0  0  0  0  0  0
  1  2  1  0  0  0  0
  1  3  2  0  0  0  0
  1  4  2  0  0  0  0
  1  5  1  0  0  0  0
  2  6  1  0  0  0  0
  2  7  1  0  0  0  0
  2  8  1  0  0  0  0
M  END
>  <INPUT>
DTXSID2044397

>  <FOUND_BY>
DSSTox_Substance_Id

>  <DTXSID>
DTXSID2044397

>  <PREFERRED_NAME>
Trifluoromethanesulfonic acid

>  <CASRN>
1493-13-6

>  <INCHIKEY>
ITMCEJHCFYSIIV-UHFFFAOYSA-N

>  <IUPAC_NAME>
Trifluoromethanesulfonic acid

>  <SMILES>
OS(=O)(=O)C(F)(F)F

>  <INCHI_STRING>
InChI=1S/CHF3O3S/c2-1(3,4)8(5,6)7/h(H,5,6,7)


>  <MOLECULAR_FORMULA>
CHF3O3S

>  <AVERAGE_MASS>
150.07

>  <MONOISOTOPIC_MASS>
149.959849555

>  <MOL_FILE>
MOL_FILE

$$$$

  -INDIGO-02112615072D

 18 17  0  0  0  0  0  0  0  0999 V2000
    3.0800   -1.1551    0.0000 Cl  0  0  0  0  0  0  0  0  0  0  0  0
   12.4161    1.1551    0.0000 Cl  0  0  0  0  0  0  0  0  0  0  0  0
    6.3112    0.9486    0.0000 F   0  0  0  0  0  0  0  0  0  0  0  0
    7.8512   -1.7186    0.0000 F   0  0  0  0  0  0  0  0  0  0  0  0
    9.1849   -0.9486    0.0000 F   0  0  0  0  0  0  0  0  0  0  0  0
    7.6449    1.7186    0.0000 F   0  0  0  0  0  0  0  0  0  0  0  0
   10.5187   -0.1786    0.0000 F   0  0  0  0  0  0  0  0  0  0  0  0
    8.9785    2.4886    0.0000 F   0  0  0  0  0  0  0  0  0  0  0  0
    4.9775    0.1786    0.0000 F   0  0  0  0  0  0  0  0  0  0  0  0
    6.5175   -2.4886    0.0000 F   0  0  0  0  0  0  0  0  0  0  0  0
    4.4137   -3.4651    0.0000 O   0  0  0  0  0  0  0  0  0  0  0  0
   11.0824    3.4651    0.0000 O   0  0  0  0  0  0  0  0  0  0  0  0
    7.0812   -0.3851    0.0000 C   0  0  0  0  0  0  0  0  0  0  0  0
    8.4149    0.3851    0.0000 C   0  0  0  0  0  0  0  0  0  0  0  0
    5.7475   -1.1551    0.0000 C   0  0  0  0  0  0  0  0  0  0  0  0
    9.7485    1.1551    0.0000 C   0  0  0  0  0  0  0  0  0  0  0  0
    4.4137   -1.9251    0.0000 C   0  0  0  0  0  0  0  0  0  0  0  0
   11.0824    1.9251    0.0000 C   0  0  0  0  0  0  0  0  0  0  0  0
  1 17  1  0  0  0  0
  2 18  1  0  0  0  0
  3 13  1  0  0  0  0
  4 13  1  0  0  0  0
  5 14  1  0  0  0  0
  6 14  1  0  0  0  0
  7 16  1  0  0  0  0
  8 16  1  0  0  0  0
  9 15  1  0  0  0  0
 10 15  1  0  0  0  0
 11 17  2  0  0  0  0
 12 18  2  0  0  0  0
 13 14  1  0  0  0  0
 13 15  1  0  0  0  0
 14 16  1  0  0  0  0
 15 17  1  0  0  0  0
 16 18  1  0  0  0  0
M  END
>  <INPUT>
DTXSID10379719

>  <FOUND_BY>
DSSTox_Substance_Id

>  <DTXSID>
DTXSID10379719

>  <PREFERRED_NAME>
Perfluoroadipoyl chloride

>  <CASRN>
336-06-1

>  <INCHIKEY>
NGSYNEZFBAPQFK-UHFFFAOYSA-N

>  <IUPAC_NAME>
Octafluorohexanedioyl dichloride

>  <SMILES>
FC(F)(C(Cl)=O)C(F)(F)C(F)(F)C(F)(F)C(Cl)=O

>  <INCHI_STRING>
InChI=1S/C6Cl2F8O2/c7-1(17)3(9,10)5(13,14)6(15,16)4(11,12)2(8)18

>  <MOLECULAR_FORMULA>
C6Cl2F8O2

>  <AVERAGE_MASS>
326.95

>  <MONOISOTOPIC_MASS>
325.9147599

>  <MOL_FILE>
MOL_FILE

$$$$

  -INDIGO-02112615072D

 26 24  0  0  0  0  0  0  0  0999 V2000
   -4.4019    0.0000    0.0000 C   0  0  0  0  0  0  0  0  0  0  0  0
   -2.8619    0.0000    0.0000 C   0  0  0  0  0  0  0  0  0  0  0  0
   -1.3219    0.0000    0.0000 C   0  0  0  0  0  0  0  0  0  0  0  0
    0.2181    0.0000    0.0000 C   0  0  0  0  0  0  0  0  0  0  0  0
    1.7581    0.0000    0.0000 C   0  0  0  0  0  0  0  0  0  0  0  0
    3.2981    0.0000    0.0000 C   0  0  0  0  0  0  0  0  0  0  0  0
    4.8381    0.0000    0.0000 C   0  0  0  0  0  0  0  0  0  0  0  0
    6.3781    0.0000    0.0000 C   0  0  0  0  0  0  0  0  0  0  0  0
   -5.1719    1.3337    0.0000 O   0  0  0  0  0  0  0  0  0  0  0  0
   -5.1719   -1.3337    0.0000 O   0  0  0  0  0  0  0  0  0  0  0  0
   -2.8619    1.5400    0.0000 F   0  0  0  0  0  0  0  0  0  0  0  0
   -2.8619   -1.5400    0.0000 F   0  0  0  0  0  0  0  0  0  0  0  0
   -1.3219    1.5400    0.0000 F   0  0  0  0  0  0  0  0  0  0  0  0
   -1.3219   -1.5400    0.0000 F   0  0  0  0  0  0  0  0  0  0  0  0
    0.2181   -1.5400    0.0000 F   0  0  0  0  0  0  0  0  0  0  0  0
    0.2181    1.5400    0.0000 F   0  0  0  0  0  0  0  0  0  0  0  0
    1.7581    1.5400    0.0000 F   0  0  0  0  0  0  0  0  0  0  0  0
    1.7581   -1.5400    0.0000 F   0  0  0  0  0  0  0  0  0  0  0  0
    3.2981   -1.5400    0.0000 F   0  0  0  0  0  0  0  0  0  0  0  0
    3.2981    1.5400    0.0000 F   0  0  0  0  0  0  0  0  0  0  0  0
    4.8381    1.5400    0.0000 F   0  0  0  0  0  0  0  0  0  0  0  0
    4.8381   -1.5400    0.0000 F   0  0  0  0  0  0  0  0  0  0  0  0
    6.3781    1.5400    0.0000 F   0  0  0  0  0  0  0  0  0  0  0  0
    6.3781   -1.5400    0.0000 F   0  0  0  0  0  0  0  0  0  0  0  0
    7.9181    0.0000    0.0000 F   0  0  0  0  0  0  0  0  0  0  0  0
   -6.6250   -1.3750    0.0000 Na  0  0  0  0  0  0  0  0  0  0  0  0
  2  1  1  0  0  0  0
 10  1  1  0  0  0  0
  9  1  2  0  0  0  0
  3  2  1  0  0  0  0
 11  2  1  0  0  0  0
 12  2  1  0  0  0  0
  4  3  1  0  0  0  0
 13  3  1  0  0  0  0
 14  3  1  0  0  0  0
  5  4  1  0  0  0  0
 15  4  1  0  0  0  0
 16  4  1  0  0  0  0
  6  5  1  0  0  0  0
 17  5  1  0  0  0  0
 18  5  1  0  0  0  0
  7  6  1  0  0  0  0
 19  6  1  0  0  0  0
 20  6  1  0  0  0  0
  8  7  1  0  0  0  0
 21  7  1  0  0  0  0
 22  7  1  0  0  0  0
 23  8  1  0  0  0  0
 24  8  1  0  0  0  0
 25  8  1  0  0  0  0
M  CHG  2  10  -1  26   1
M  END
>  <INPUT>
DTXSID40880025

>  <FOUND_BY>
DSSTox_Substance_Id

>  <DTXSID>
DTXSID40880025

>  <PREFERRED_NAME>
Sodium perfluorooctanoate

>  <CASRN>
335-95-5

>  <INCHIKEY>
LWHQXUODFPPQTL-UHFFFAOYSA-M

>  <IUPAC_NAME>
Sodium pentadecafluorooctanoate

>  <SMILES>
[Na+].[O-]C(=O)C(F)(F)C(F)(F)C(F)(F)C(F)(F)C(F)(F)C(F)(F)C(F)(F)F

>  <INCHI_STRING>
InChI=1S/C8HF15O2.Na/c9-2(10,1(24)25)3(11,12)4(13,14)5(15,16)6(17,18)7(19,20)8(21,22)23;/h(H,24,25);/q;+1/p-1


>  <MOLECULAR_FORMULA>
C8F15NaO2

>  <AVERAGE_MASS>
436.052

>  <MONOISOTOPIC_MASS>
435.95564597

>  <MOL_FILE>
MOL_FILE

$$$$

  -INDIGO-02112615072D

 16 15  0  0  0  0  0  0  0  0999 V2000
   -4.6680   -1.9251    0.0000 S   0  0  0  0  0  0  0  0  0  0  0  0
   -0.1032    0.9486    0.0000 F   0  0  0  0  0  0  0  0  0  0  0  0
    1.4368   -1.7186    0.0000 F   0  0  0  0  0  0  0  0  0  0  0  0
    0.1032   -2.4886    0.0000 F   0  0  0  0  0  0  0  0  0  0  0  0
   -1.4368    0.1786    0.0000 F   0  0  0  0  0  0  0  0  0  0  0  0
    1.2307    1.7186    0.0000 F   0  0  0  0  0  0  0  0  0  0  0  0
    2.7707   -0.9486    0.0000 F   0  0  0  0  0  0  0  0  0  0  0  0
    4.6680    1.9251    0.0000 F   0  0  0  0  0  0  0  0  0  0  0  0
    4.1044   -0.1786    0.0000 F   0  0  0  0  0  0  0  0  0  0  0  0
    2.5642    2.4886    0.0000 F   0  0  0  0  0  0  0  0  0  0  0  0
    0.6668   -0.3851    0.0000 C   0  0  0  0  0  0  0  0  0  0  0  0
   -0.6668   -1.1551    0.0000 C   0  0  0  0  0  0  0  0  0  0  0  0
    2.0007    0.3851    0.0000 C   0  0  0  0  0  0  0  0  0  0  0  0
   -2.0005   -1.9251    0.0000 C   0  0  0  0  0  0  0  0  0  0  0  0
    3.3342    1.1551    0.0000 C   0  0  0  0  0  0  0  0  0  0  0  0
   -3.3342   -1.1551    0.0000 C   0  0  0  0  0  0  0  0  0  0  0  0
  1 16  1  0  0  0  0
  2 11  1  0  0  0  0
  3 11  1  0  0  0  0
  4 12  1  0  0  0  0
  5 12  1  0  0  0  0
  6 13  1  0  0  0  0
  7 13  1  0  0  0  0
  8 15  1  0  0  0  0
  9 15  1  0  0  0  0
 10 15  1  0  0  0  0
 11 12  1  0  0  0  0
 11 13  1  0  0  0  0
 12 14  1  0  0  0  0
 13 15  1  0  0  0  0
 14 16  1  0  0  0  0
M  END
>  <INPUT>
DTXSID40880388

>  <FOUND_BY>
DSSTox_Substance_Id

>  <DTXSID>
DTXSID40880388

>  <PREFERRED_NAME>
2-(Perfluorobutyl)ethanethiol

>  <CASRN>
34451-25-7

>  <INCHIKEY>
GQJXVHYUQPXZOL-UHFFFAOYSA-N

>  <IUPAC_NAME>
3,3,4,4,5,5,6,6,6-Nonafluorohexane-1-thiol

>  <SMILES>
FC(F)(F)C(F)(F)C(F)(F)C(F)(F)CCS

>  <INCHI_STRING>
InChI=1S/C6H5F9S/c7-3(8,1-2-16)4(9,10)5(11,12)6(13,14)15/h16H,1-2H2

>  <MOLECULAR_FORMULA>
C6H5F9S

>  <AVERAGE_MASS>
280.15

>  <MONOISOTOPIC_MASS>
279.996824802

>  <MOL_FILE>
MOL_FILE

$$$$

  -INDIGO-02112615072D

 16 15  0  0  0  0  0  0  0  0999 V2000
    2.1524    1.3824    0.0000 F   0  0  0  0  0  0  0  0  0  0  0  0
    2.1524   -0.1576    0.0000 C   0  0  0  0  0  0  0  0  0  0  0  0
    2.1524   -1.6976    0.0000 F   0  0  0  0  0  0  0  0  0  0  0  0
    3.6924   -0.1576    0.0000 C   0  0  0  0  0  0  0  0  0  0  0  0
    4.4624    1.1761    0.0000 C   0  0  0  0  0  0  0  0  0  0  0  0
    0.6124   -0.1576    0.0000 C   0  0  0  0  0  0  0  0  0  0  0  0
    0.6124    1.3824    0.0000 F   0  0  0  0  0  0  0  0  0  0  0  0
    0.6124   -1.6976    0.0000 F   0  0  0  0  0  0  0  0  0  0  0  0
   -0.9276   -0.1576    0.0000 C   0  0  0  0  0  0  0  0  0  0  0  0
   -0.9276    1.3824    0.0000 F   0  0  0  0  0  0  0  0  0  0  0  0
   -0.9276   -1.6976    0.0000 F   0  0  0  0  0  0  0  0  0  0  0  0
   -2.4676   -0.1576    0.0000 C   0  0  0  0  0  0  0  0  0  0  0  0
   -2.4676    1.3824    0.0000 F   0  0  0  0  0  0  0  0  0  0  0  0
   -2.4676   -1.6976    0.0000 F   0  0  0  0  0  0  0  0  0  0  0  0
   -4.0076   -0.1576    0.0000 C   0  0  0  0  0  0  0  0  0  0  0  0
   -4.7776   -1.4913    0.0000 C   0  0  0  0  0  0  0  0  0  0  0  0
  1  2  1  0  0  0  0
  2  3  1  0  0  0  0
  2  4  1  0  0  0  0
  2  6  1  0  0  0  0
  4  5  2  0  0  0  0
  6  7  1  0  0  0  0
  6  8  1  0  0  0  0
  6  9  1  0  0  0  0
  9 10  1  0  0  0  0
  9 11  1  0  0  0  0
  9 12  1  0  0  0  0
 12 13  1  0  0  0  0
 12 14  1  0  0  0  0
 12 15  1  0  0  0  0
 15 16  2  0  0  0  0
M  END
>  <INPUT>
DTXSID80880145

>  <FOUND_BY>
DSSTox_Substance_Id

>  <DTXSID>
DTXSID80880145

>  <PREFERRED_NAME>
1,4-Divinylperfluorobutane

>  <CASRN>
678-65-9

>  <INCHIKEY>
XRSMAKAYKVRPSA-UHFFFAOYSA-N

>  <IUPAC_NAME>
3,3,4,4,5,5,6,6-Octafluoroocta-1,7-diene

>  <SMILES>
FC(F)(C=C)C(F)(F)C(F)(F)C(F)(F)C=C

>  <INCHI_STRING>
InChI=1S/C8H6F8/c1-3-5(9,10)7(13,14)8(15,16)6(11,12)4-2/h3-4H,1-2H2


>  <MOLECULAR_FORMULA>
C8H6F8

>  <AVERAGE_MASS>
254.123

>  <MONOISOTOPIC_MASS>
254.034175497

>  <MOL_FILE>
MOL_FILE

$$$$

  -INDIGO-02112615072D

 15 14  0  0  0  0  0  0  0  0999 V2000
    2.1158   -0.5176    0.0000 C   0  0  0  0  0  0  0  0  0  0  0  0
    0.5793   -0.6206    0.0000 C   0  0  0  0  0  0  0  0  0  0  0  0
    0.4973    0.9231    0.0000 C   0  0  0  0  0  0  0  0  0  0  0  0
   -0.9480   -0.9342    0.0000 C   0  0  0  0  0  0  0  0  0  0  0  0
   -2.3419   -1.4501    0.0000 O   0  0  0  0  0  0  0  0  0  0  0  0
   -3.5771   -0.7618    0.0000 C   0  0  0  0  0  0  0  0  0  0  0  0
    3.5771   -0.9331    0.0000 F   0  0  0  0  0  0  0  0  0  0  0  0
    3.1460    0.5518    0.0000 F   0  0  0  0  0  0  0  0  0  0  0  0
    2.5318   -1.9966    0.0000 F   0  0  0  0  0  0  0  0  0  0  0  0
    0.6731   -2.2741    0.0000 F   0  0  0  0  0  0  0  0  0  0  0  0
    0.5176    2.4399    0.0000 F   0  0  0  0  0  0  0  0  0  0  0  0
   -0.7694    1.7241    0.0000 F   0  0  0  0  0  0  0  0  0  0  0  0
    1.7591    1.7092    0.0000 F   0  0  0  0  0  0  0  0  0  0  0  0
   -1.1297   -2.4399    0.0000 F   0  0  0  0  0  0  0  0  0  0  0  0
   -1.7923    0.2471    0.0000 F   0  0  0  0  0  0  0  0  0  0  0  0
  1  2  1  0  0  0  0
  1  7  1  0  0  0  0
  1  8  1  0  0  0  0
  1  9  1  0  0  0  0
  2  3  1  0  0  0  0
  2  4  1  0  0  0  0
  2 10  1  0  0  0  0
  3 11  1  0  0  0  0
  3 12  1  0  0  0  0
  3 13  1  0  0  0  0
  4  5  1  0  0  0  0
  5  6  1  0  0  0  0
  4 14  1  0  0  0  0
  4 15  1  0  0  0  0
M  END
>  <INPUT>
DTXSID5042326

>  <FOUND_BY>
DSSTox_Substance_Id

>  <DTXSID>
DTXSID5042326

>  <PREFERRED_NAME>
Perfluoroisobutyl methyl ether

>  <CASRN>
163702-08-7

>  <INCHIKEY>
DJXNLVJQMJNEMN-UHFFFAOYSA-N

>  <IUPAC_NAME>
1,1,1,2,3,3-Hexafluoro-3-methoxy-2-(trifluoromethyl)propane

>  <SMILES>
COC(F)(F)C(F)(C(F)(F)F)C(F)(F)F

>  <INCHI_STRING>
InChI=1S/C5H3F9O/c1-15-5(13,14)2(6,3(7,8)9)4(10,11)12/h1H3


>  <MOLECULAR_FORMULA>
C5H3F9O

>  <AVERAGE_MASS>
250.064

>  <MONOISOTOPIC_MASS>
250.004018184

>  <MOL_FILE>
MOL_FILE

$$$$

  -INDIGO-02112615072D

 19 18  0  0  0  0  0  0  0  0999 V2000
   13.7497    3.1832    0.0000 F   0  0  0  0  0  0  0  0  0  0  0  0
   13.1861    1.0795    0.0000 F   0  0  0  0  0  0  0  0  0  0  0  0
   11.6461    3.7470    0.0000 F   0  0  0  0  0  0  0  0  0  0  0  0
    3.0800    3.1832    0.0000 F   0  0  0  0  0  0  0  0  0  0  0  0
    3.6437    1.0795    0.0000 F   0  0  0  0  0  0  0  0  0  0  0  0
    5.1837    3.7470    0.0000 F   0  0  0  0  0  0  0  0  0  0  0  0
    7.0812   -3.7470    0.0000 F   0  0  0  0  0  0  0  0  0  0  0  0
    5.5412   -2.2070    0.0000 F   0  0  0  0  0  0  0  0  0  0  0  0
    8.6212   -2.2070    0.0000 F   0  0  0  0  0  0  0  0  0  0  0  0
    9.7485    2.4132    0.0000 O   0  0  0  0  0  0  0  0  0  0  0  0
    7.0812    2.4132    0.0000 O   0  0  0  0  0  0  0  0  0  0  0  0
    8.4149    0.1032    0.0000 O   0  0  0  0  0  0  0  0  0  0  0  0
    7.0812   -0.6668    0.0000 C   0  0  0  0  0  0  0  0  0  0  0  0
    5.7475    1.6432    0.0000 C   0  0  0  0  0  0  0  0  0  0  0  0
   11.0824    1.6432    0.0000 C   0  0  0  0  0  0  0  0  0  0  0  0
   12.4161    2.4132    0.0000 C   0  0  0  0  0  0  0  0  0  0  0  0
    4.4137    2.4132    0.0000 C   0  0  0  0  0  0  0  0  0  0  0  0
    7.0812   -2.2070    0.0000 C   0  0  0  0  0  0  0  0  0  0  0  0
    8.4149    1.6432    0.0000 B   0  0  0  0  0  0  0  0  0  0  0  0
  1 16  1  0  0  0  0
  2 16  1  0  0  0  0
  3 16  1  0  0  0  0
  4 17  1  0  0  0  0
  5 17  1  0  0  0  0
  6 17  1  0  0  0  0
  7 18  1  0  0  0  0
  8 18  1  0  0  0  0
  9 18  1  0  0  0  0
 10 15  1  0  0  0  0
 10 19  1  0  0  0  0
 11 14  1  0  0  0  0
 11 19  1  0  0  0  0
 12 13  1  0  0  0  0
 12 19  1  0  0  0  0
 13 18  1  0  0  0  0
 14 17  1  0  0  0  0
 15 16  1  0  0  0  0
M  END
>  <INPUT>
DTXSID60394033

>  <FOUND_BY>
DSSTox_Substance_Id

>  <DTXSID>
DTXSID60394033

>  <PREFERRED_NAME>
Tris(2,2,2-trifluoroethyl) borate

>  <CASRN>
659-18-7

>  <INCHIKEY>
DIEXQJFSUBBIRP-UHFFFAOYSA-N

>  <IUPAC_NAME>
Tris(2,2,2-trifluoroethyl) borate

>  <SMILES>
FC(F)(F)COB(OCC(F)(F)F)OCC(F)(F)F

>  <INCHI_STRING>
InChI=1S/C6H6BF9O3/c8-4(9,10)1-17-7(18-2-5(11,12)13)19-3-6(14,15)16/h1-3H2

>  <MOLECULAR_FORMULA>
C6H6BF9O3

>  <AVERAGE_MASS>
307.91

>  <MONOISOTOPIC_MASS>
308.026628

>  <MOL_FILE>
MOL_FILE

$$$$

  -INDIGO-02112615072D

 31 30  0  0  0  0  0  0  0  0999 V2000
    1.5400    2.6673    0.0000 Si  0  0  0  0  0  0  0  0  0  0  0  0
    2.8737    3.4373    0.0000 O   0  0  0  0  0  0  0  0  0  0  0  0
    4.2073    2.6673    0.0000 C   0  0  0  0  0  0  0  0  0  0  0  0
    5.5410    3.4373    0.0000 C   0  0  0  0  0  0  0  0  0  0  0  0
    0.7700    4.0010    0.0000 O   0  0  0  0  0  0  0  0  0  0  0  0
   -0.7700    4.0010    0.0000 C   0  0  0  0  0  0  0  0  0  0  0  0
   -1.5400    5.3347    0.0000 C   0  0  0  0  0  0  0  0  0  0  0  0
    0.2063    1.8973    0.0000 C   0  0  0  0  0  0  0  0  0  0  0  0
   -1.1273    2.6673    0.0000 C   0  0  0  0  0  0  0  0  0  0  0  0
   -2.4610    1.8973    0.0000 C   0  0  0  0  0  0  0  0  0  0  0  0
   -3.7947    1.1273    0.0000 C   0  0  0  0  0  0  0  0  0  0  0  0
   -4.5647    2.4610    0.0000 F   0  0  0  0  0  0  0  0  0  0  0  0
   -3.0247   -0.2063    0.0000 F   0  0  0  0  0  0  0  0  0  0  0  0
   -5.1285    0.3573    0.0000 C   0  0  0  0  0  0  0  0  0  0  0  0
   -5.8985    1.6910    0.0000 F   0  0  0  0  0  0  0  0  0  0  0  0
   -4.3585   -0.9763    0.0000 F   0  0  0  0  0  0  0  0  0  0  0  0
   -6.4620   -0.4127    0.0000 C   0  0  0  0  0  0  0  0  0  0  0  0
   -7.2320    0.9210    0.0000 F   0  0  0  0  0  0  0  0  0  0  0  0
   -5.6920   -1.7463    0.0000 F   0  0  0  0  0  0  0  0  0  0  0  0
   -7.7958   -1.1827    0.0000 C   0  0  0  0  0  0  0  0  0  0  0  0
   -8.5658    0.1510    0.0000 F   0  0  0  0  0  0  0  0  0  0  0  0
   -7.0258   -2.5163    0.0000 F   0  0  0  0  0  0  0  0  0  0  0  0
   -9.1295   -1.9527    0.0000 C   0  0  0  0  0  0  0  0  0  0  0  0
  -10.4630   -2.7227    0.0000 F   0  0  0  0  0  0  0  0  0  0  0  0
   -9.8995   -0.6190    0.0000 F   0  0  0  0  0  0  0  0  0  0  0  0
   -8.3595   -3.2863    0.0000 F   0  0  0  0  0  0  0  0  0  0  0  0
   -3.2310    3.2310    0.0000 F   0  0  0  0  0  0  0  0  0  0  0  0
   -1.6910    0.5637    0.0000 F   0  0  0  0  0  0  0  0  0  0  0  0
    2.3100    1.3337    0.0000 O   0  0  0  0  0  0  0  0  0  0  0  0
    1.5400    0.0000    0.0000 C   0  0  0  0  0  0  0  0  0  0  0  0
    0.0000    0.0000    0.0000 C   0  0  0  0  0  0  0  0  0  0  0  0
  1  2  1  0  0  0  0
  2  3  1  0  0  0  0
  3  4  1  0  0  0  0
  1  5  1  0  0  0  0
  5  6  1  0  0  0  0
  6  7  1  0  0  0  0
  1  8  1  0  0  0  0
  8  9  1  0  0  0  0
  9 10  1  0  0  0  0
 10 11  1  0  0  0  0
 11 12  1  0  0  0  0
 11 13  1  0  0  0  0
 11 14  1  0  0  0  0
 14 15  1  0  0  0  0
 14 16  1  0  0  0  0
 14 17  1  0  0  0  0
 17 18  1  0  0  0  0
 17 19  1  0  0  0  0
 17 20  1  0  0  0  0
 20 21  1  0  0  0  0
 20 22  1  0  0  0  0
 20 23  1  0  0  0  0
 23 24  1  0  0  0  0
 23 25  1  0  0  0  0
 23 26  1  0  0  0  0
 10 27  1  0  0  0  0
 10 28  1  0  0  0  0
  1 29  1  0  0  0  0
 29 30  1  0  0  0  0
 30 31  1  0  0  0  0
M  END
>  <INPUT>
DTXSID1074915

>  <FOUND_BY>
DSSTox_Substance_Id

>  <DTXSID>
DTXSID1074915

>  <PREFERRED_NAME>
Triethoxy((perfluorohexyl)ethyl)silane

>  <CASRN>
51851-37-7

>  <INCHIKEY>
AVYKQOAMZCAHRG-UHFFFAOYSA-N

>  <IUPAC_NAME>
Triethoxy(3,3,4,4,5,5,6,6,7,7,8,8,8-tridecafluorooctyl)silane

>  <SMILES>
CCO[Si](CCC(F)(F)C(F)(F)C(F)(F)C(F)(F)C(F)(F)C(F)(F)F)(OCC)OCC

>  <INCHI_STRING>
InChI=1S/C14H19F13O3Si/c1-4-28-31(29-5-2,30-6-3)8-7-9(15,16)10(17,18)11(19,20)12(21,22)13(23,24)14(25,26)27/h4-8H2,1-3H3

>  <MOLECULAR_FORMULA>
C14H19F13O3Si

>  <AVERAGE_MASS>
510.367

>  <MONOISOTOPIC_MASS>
510.089587126

>  <MOL_FILE>
MOL_FILE

$$$$

  -INDIGO-02112615072D

 34 33  0  0  0  0  0  0  0  0999 V2000
   16.5692    2.8109    0.0000 F   0  0  0  0  0  0  0  0  0  0  0  0
   19.2365    1.2709    0.0000 F   0  0  0  0  0  0  0  0  0  0  0  0
   15.7992    1.4773    0.0000 F   0  0  0  0  0  0  0  0  0  0  0  0
   18.4665   -0.0627    0.0000 F   0  0  0  0  0  0  0  0  0  0  0  0
   17.3392    4.1446    0.0000 F   0  0  0  0  0  0  0  0  0  0  0  0
   20.0065    2.6046    0.0000 F   0  0  0  0  0  0  0  0  0  0  0  0
   14.8228    0.9136    0.0000 F   0  0  0  0  0  0  0  0  0  0  0  0
   14.8228   -2.1664    0.0000 F   0  0  0  0  0  0  0  0  0  0  0  0
   13.2828    0.9136    0.0000 F   0  0  0  0  0  0  0  0  0  0  0  0
   13.2828   -2.1664    0.0000 F   0  0  0  0  0  0  0  0  0  0  0  0
   20.2128    6.0420    0.0000 F   0  0  0  0  0  0  0  0  0  0  0  0
   18.1092    5.4783    0.0000 F   0  0  0  0  0  0  0  0  0  0  0  0
   20.7765    3.9383    0.0000 F   0  0  0  0  0  0  0  0  0  0  0  0
    9.6392   -1.1901    0.0000 F   0  0  0  0  0  0  0  0  0  0  0  0
   12.3065   -2.7301    0.0000 F   0  0  0  0  0  0  0  0  0  0  0  0
    8.8692   -2.5238    0.0000 F   0  0  0  0  0  0  0  0  0  0  0  0
   11.5365   -4.0638    0.0000 F   0  0  0  0  0  0  0  0  0  0  0  0
    7.8928   -3.0875    0.0000 F   0  0  0  0  0  0  0  0  0  0  0  0
    7.8928   -6.1675    0.0000 F   0  0  0  0  0  0  0  0  0  0  0  0
   16.3628   -0.6264    0.0000 O   0  0  0  0  0  0  0  0  0  0  0  0
   11.7428   -0.6264    0.0000 O   0  0  0  0  0  0  0  0  0  0  0  0
    9.4328   -4.6275    0.0000 O   0  0  0  0  0  0  0  0  0  0  0  0
    5.5828   -5.9611    0.0000 O   0  0  0  0  0  0  0  0  0  0  0  0
    5.5828   -3.2938    0.0000 O   0  0  0  0  0  0  0  0  0  0  0  0
   17.9028    2.0409    0.0000 C   0  0  0  0  0  0  0  0  0  0  0  0
   17.1328    0.7073    0.0000 C   0  0  0  0  0  0  0  0  0  0  0  0
   18.6728    3.3746    0.0000 C   0  0  0  0  0  0  0  0  0  0  0  0
   14.8228   -0.6264    0.0000 C   0  0  0  0  0  0  0  0  0  0  0  0
   13.2828   -0.6264    0.0000 C   0  0  0  0  0  0  0  0  0  0  0  0
   19.4428    4.7083    0.0000 C   0  0  0  0  0  0  0  0  0  0  0  0
   10.9728   -1.9601    0.0000 C   0  0  0  0  0  0  0  0  0  0  0  0
   10.2028   -3.2938    0.0000 C   0  0  0  0  0  0  0  0  0  0  0  0
    7.8928   -4.6275    0.0000 C   0  0  0  0  0  0  0  0  0  0  0  0
    6.3528   -4.6275    0.0000 C   0  0  0  0  0  0  0  0  0  0  0  0
  1 25  1  0  0  0  0
  2 25  1  0  0  0  0
  3 26  1  0  0  0  0
  4 26  1  0  0  0  0
  5 27  1  0  0  0  0
  6 27  1  0  0  0  0
  7 28  1  0  0  0  0
  8 28  1  0  0  0  0
  9 29  1  0  0  0  0
 10 29  1  0  0  0  0
 11 30  1  0  0  0  0
 12 30  1  0  0  0  0
 13 30  1  0  0  0  0
 14 31  1  0  0  0  0
 15 31  1  0  0  0  0
 16 32  1  0  0  0  0
 17 32  1  0  0  0  0
 18 33  1  0  0  0  0
 19 33  1  0  0  0  0
 20 26  1  0  0  0  0
 20 28  1  0  0  0  0
 21 29  1  0  0  0  0
 21 31  1  0  0  0  0
 22 32  1  0  0  0  0
 22 33  1  0  0  0  0
 23 34  1  0  0  0  0
 24 34  2  0  0  0  0
 25 26  1  0  0  0  0
 25 27  1  0  0  0  0
 27 30  1  0  0  0  0
 28 29  1  0  0  0  0
 31 32  1  0  0  0  0
 33 34  1  0  0  0  0
M  END
>  <INPUT>
DTXSID50375114

>  <FOUND_BY>
DSSTox_Substance_Id

>  <DTXSID>
DTXSID50375114

>  <PREFERRED_NAME>
Perfluoro-3,6,9-trioxatridecanoic acid

>  <CASRN>
330562-41-9

>  <INCHIKEY>
GDQLSTSWOFAQNO-UHFFFAOYSA-N

>  <IUPAC_NAME>
Difluoro{1,1,2,2-tetrafluoro-2-[1,1,2,2-tetrafluoro-2-(nonafluorobutoxy)ethoxy]ethoxy}acetic acid

>  <SMILES>
OC(=O)C(F)(F)OC(F)(F)C(F)(F)OC(F)(F)C(F)(F)OC(F)(F)C(F)(F)C(F)(F)C(F)(F)F

>  <INCHI_STRING>
InChI=1S/C10HF19O5/c11-2(12,1(30)31)32-7(22,23)8(24,25)34-10(28,29)9(26,27)33-6(20,21)4(15,16)3(13,14)5(17,18)19/h(H,30,31)

>  <MOLECULAR_FORMULA>
C10HF19O5

>  <AVERAGE_MASS>
562.083

>  <MONOISOTOPIC_MASS>
561.952058229

>  <MOL_FILE>
MOL_FILE

$$$$

  -INDIGO-02112615072D

 17 16  0  0  0  0  0  0  0  0999 V2000
    4.9775    1.3337    0.0000 F   0  0  0  0  0  0  0  0  0  0  0  0
    6.5175   -1.3337    0.0000 F   0  0  0  0  0  0  0  0  0  0  0  0
   11.8524    1.3337    0.0000 F   0  0  0  0  0  0  0  0  0  0  0  0
   10.3124   -1.3337    0.0000 F   0  0  0  0  0  0  0  0  0  0  0  0
    3.0800    0.0000    0.0000 F   0  0  0  0  0  0  0  0  0  0  0  0
    4.4137   -2.3100    0.0000 F   0  0  0  0  0  0  0  0  0  0  0  0
   13.7497    0.0000    0.0000 F   0  0  0  0  0  0  0  0  0  0  0  0
   12.4161   -2.3100    0.0000 F   0  0  0  0  0  0  0  0  0  0  0  0
    8.4149    0.0000    0.0000 O   0  0  0  0  0  0  0  0  0  0  0  0
    9.7485    2.3100    0.0000 O   0  0  0  0  0  0  0  0  0  0  0  0
    7.0812    2.3100    0.0000 O   0  0  0  0  0  0  0  0  0  0  0  0
    5.7475    0.0000    0.0000 C   0  0  0  0  0  0  0  0  0  0  0  0
   11.0824    0.0000    0.0000 C   0  0  0  0  0  0  0  0  0  0  0  0
    4.4137   -0.7700    0.0000 C   0  0  0  0  0  0  0  0  0  0  0  0
   12.4161   -0.7700    0.0000 C   0  0  0  0  0  0  0  0  0  0  0  0
    7.0812    0.7700    0.0000 C   0  0  0  0  0  0  0  0  0  0  0  0
    9.7485    0.7700    0.0000 C   0  0  0  0  0  0  0  0  0  0  0  0
  1 12  1  0  0  0  0
  2 12  1  0  0  0  0
  3 13  1  0  0  0  0
  4 13  1  0  0  0  0
  5 14  1  0  0  0  0
  6 14  1  0  0  0  0
  7 15  1  0  0  0  0
  8 15  1  0  0  0  0
  9 16  1  0  0  0  0
  9 17  1  0  0  0  0
 10 17  2  0  0  0  0
 11 16  2  0  0  0  0
 12 14  1  0  0  0  0
 12 16  1  0  0  0  0
 13 15  1  0  0  0  0
 13 17  1  0  0  0  0
M  END
>  <INPUT>
DTXSID60505420

>  <FOUND_BY>
DSSTox_Substance_Id

>  <DTXSID>
DTXSID60505420

>  <PREFERRED_NAME>
2H-Perfluoropropanoic anhydride

>  <CASRN>
337-83-7

>  <INCHIKEY>
LBGWXMJBOPPNMV-UHFFFAOYSA-N

>  <IUPAC_NAME>
2,2,3,3-Tetrafluoropropanoic anhydride

>  <SMILES>
FC(F)C(F)(F)C(=O)OC(=O)C(F)(F)C(F)F

>  <INCHI_STRING>
InChI=1S/C6H2F8O3/c7-1(8)5(11,12)3(15)17-4(16)6(13,14)2(9)10/h1-2H

>  <MOLECULAR_FORMULA>
C6H2F8O3

>  <AVERAGE_MASS>
274.066

>  <MONOISOTOPIC_MASS>
273.987619228

>  <MOL_FILE>
MOL_FILE

$$$$

  -INDIGO-02112615072D

 17 16  0  0  0  0  0  0  0  0999 V2000
    7.2875   -2.9661    0.0000 F   0  0  0  0  0  0  0  0  0  0  0  0
    7.0812    0.4713    0.0000 F   0  0  0  0  0  0  0  0  0  0  0  0
    8.6212   -2.1961    0.0000 F   0  0  0  0  0  0  0  0  0  0  0  0
    3.8500   -3.1724    0.0000 F   0  0  0  0  0  0  0  0  0  0  0  0
    3.8500   -1.6324    0.0000 F   0  0  0  0  0  0  0  0  0  0  0  0
    5.9537   -3.7361    0.0000 F   0  0  0  0  0  0  0  0  0  0  0  0
   10.5187    0.6776    0.0000 F   0  0  0  0  0  0  0  0  0  0  0  0
    9.9549   -1.4261    0.0000 F   0  0  0  0  0  0  0  0  0  0  0  0
    8.4149    1.2413    0.0000 F   0  0  0  0  0  0  0  0  0  0  0  0
    3.0800    2.7813    0.0000 O   0  0  0  0  0  0  0  0  0  0  0  0
    6.5175   -1.6324    0.0000 C   0  0  0  0  0  0  0  0  0  0  0  0
    5.7475   -0.2989    0.0000 C   0  0  0  0  0  0  0  0  0  0  0  0
    7.8512   -0.8624    0.0000 C   0  0  0  0  0  0  0  0  0  0  0  0
    4.4139    0.4713    0.0000 C   0  0  0  0  0  0  0  0  0  0  0  0
    5.1837   -2.4024    0.0000 C   0  0  0  0  0  0  0  0  0  0  0  0
    9.1849   -0.0924    0.0000 C   0  0  0  0  0  0  0  0  0  0  0  0
    4.4137    2.0113    0.0000 C   0  0  0  0  0  0  0  0  0  0  0  0
  1 11  1  0  0  0  0
  2 13  1  0  0  0  0
  3 13  1  0  0  0  0
  4 15  1  0  0  0  0
  5 15  1  0  0  0  0
  6 15  1  0  0  0  0
  7 16  1  0  0  0  0
  8 16  1  0  0  0  0
  9 16  1  0  0  0  0
 10 17  1  0  0  0  0
 11 12  1  0  0  0  0
 11 13  1  0  0  0  0
 11 15  1  0  0  0  0
 12 14  1  0  0  0  0
 13 16  1  0  0  0  0
 14 17  1  0  0  0  0
M  END
>  <INPUT>
DTXSID30379357

>  <FOUND_BY>
DSSTox_Substance_Id

>  <DTXSID>
DTXSID30379357

>  <PREFERRED_NAME>
3(Perfluoro-2-butyl)propanol

>  <CASRN>
239463-96-8

>  <INCHIKEY>
WHNVWOCZLNZDCM-UHFFFAOYNA-N

>  <IUPAC_NAME>
4,5,5,6,6,6-Hexafluoro-4-(trifluoromethyl)hexan-1-ol

>  <SMILES>
OCCCC(F)(C(F)(F)F)C(F)(F)C(F)(F)F

>  <INCHI_STRING>
InChI=1S/C7H7F9O/c8-4(2-1-3-17,6(11,12)13)5(9,10)7(14,15)16/h17H,1-3H2

>  <MOLECULAR_FORMULA>
C7H7F9O

>  <AVERAGE_MASS>
278.118

>  <MONOISOTOPIC_MASS>
278.035318312

>  <MOL_FILE>
MOL_FILE

$$$$

  -INDIGO-02112615072D

 13 12  0  0  0  0  0  0  0  0999 V2000
    1.1577   -0.3922    0.0000 C   0  0  0  0  0  0  0  0  0  0  0  0
    2.6977   -0.3922    0.0000 C   0  0  0  0  0  0  0  0  0  0  0  0
    4.2377   -0.3922    0.0000 C   0  0  0  0  0  0  0  0  0  0  0  0
    5.0077   -1.7259    0.0000 N   0  0  0  0  0  0  0  0  0  0  0  0
    5.0077    0.9416    0.0000 O   0  0  0  0  0  0  0  0  0  0  0  0
    2.6977    1.1478    0.0000 F   0  0  0  0  0  0  0  0  0  0  0  0
    2.6977   -1.9322    0.0000 F   0  0  0  0  0  0  0  0  0  0  0  0
   -0.3823   -0.3922    0.0000 C   0  0  0  0  0  0  0  0  0  0  0  0
   -1.9223   -0.3922    0.0000 F   0  0  0  0  0  0  0  0  0  0  0  0
   -0.3823    1.1478    0.0000 F   0  0  0  0  0  0  0  0  0  0  0  0
   -0.3823   -1.9322    0.0000 F   0  0  0  0  0  0  0  0  0  0  0  0
    1.1577    1.1478    0.0000 F   0  0  0  0  0  0  0  0  0  0  0  0
    1.1577   -1.9322    0.0000 F   0  0  0  0  0  0  0  0  0  0  0  0
  1  2  1  0  0  0  0
  2  3  1  0  0  0  0
  3  4  1  0  0  0  0
  3  5  2  0  0  0  0
  2  6  1  0  0  0  0
  2  7  1  0  0  0  0
  1  8  1  0  0  0  0
  8  9  1  0  0  0  0
  8 10  1  0  0  0  0
  8 11  1  0  0  0  0
  1 12  1  0  0  0  0
  1 13  1  0  0  0  0
M  END
>  <INPUT>
DTXSID2060965

>  <FOUND_BY>
DSSTox_Substance_Id

>  <DTXSID>
DTXSID2060965

>  <PREFERRED_NAME>
Heptafluorobutyramide

>  <CASRN>
662-50-0

>  <INCHIKEY>
FOBJABJCODOMEO-UHFFFAOYSA-N

>  <IUPAC_NAME>
2,2,3,3,4,4,4-Heptafluorobutanamide

>  <SMILES>
NC(=O)C(F)(F)C(F)(F)C(F)(F)F

>  <INCHI_STRING>
InChI=1S/C4H2F7NO/c5-2(6,1(12)13)3(7,8)4(9,10)11/h(H2,12,13)


>  <MOLECULAR_FORMULA>
C4H2F7NO

>  <AVERAGE_MASS>
213.055

>  <MONOISOTOPIC_MASS>
213.002460829

>  <MOL_FILE>
MOL_FILE

$$$$

  -INDIGO-02112615072D

 18 17  0  0  0  0  0  0  0  0999 V2000
    4.6200    8.0020    0.0000 O   0  0  0  0  0  0  0  0  0  0  0  0
    5.3900    6.6685    0.0000 C   0  0  0  0  0  0  0  0  0  0  0  0
    6.9300    6.6685    0.0000 O   0  0  0  0  0  0  0  0  0  0  0  0
    4.6200    5.3347    0.0000 C   0  0  0  0  0  0  0  0  0  0  0  0
    3.2863    6.1047    0.0000 F   0  0  0  0  0  0  0  0  0  0  0  0
    5.9537    4.5647    0.0000 F   0  0  0  0  0  0  0  0  0  0  0  0
    3.8500    4.0010    0.0000 C   0  0  0  0  0  0  0  0  0  0  0  0
    2.5163    4.7710    0.0000 F   0  0  0  0  0  0  0  0  0  0  0  0
    5.1837    3.2310    0.0000 F   0  0  0  0  0  0  0  0  0  0  0  0
    3.0800    2.6673    0.0000 C   0  0  0  0  0  0  0  0  0  0  0  0
    1.7463    3.4373    0.0000 F   0  0  0  0  0  0  0  0  0  0  0  0
    4.4137    1.8973    0.0000 F   0  0  0  0  0  0  0  0  0  0  0  0
    2.3100    1.3337    0.0000 C   0  0  0  0  0  0  0  0  0  0  0  0
    0.9763    2.1037    0.0000 F   0  0  0  0  0  0  0  0  0  0  0  0
    3.6437    0.5637    0.0000 F   0  0  0  0  0  0  0  0  0  0  0  0
    1.5400    0.0000    0.0000 C   0  0  0  0  0  0  0  0  0  0  0  0
    2.3100   -1.3337    0.0000 O   0  0  0  0  0  0  0  0  0  0  0  0
    0.0000    0.0000    0.0000 O   0  0  0  0  0  0  0  0  0  0  0  0
  1  2  2  0  0  0  0
  2  3  1  0  0  0  0
  2  4  1  0  0  0  0
  4  5  1  0  0  0  0
  4  6  1  0  0  0  0
  4  7  1  0  0  0  0
  7  8  1  0  0  0  0
  7  9  1  0  0  0  0
  7 10  1  0  0  0  0
 10 11  1  0  0  0  0
 10 12  1  0  0  0  0
 10 13  1  0  0  0  0
 13 14  1  0  0  0  0
 13 15  1  0  0  0  0
 13 16  1  0  0  0  0
 16 17  2  0  0  0  0
 16 18  1  0  0  0  0
M  END
>  <INPUT>
DTXSID4059833

>  <FOUND_BY>
DSSTox_Substance_Id

>  <DTXSID>
DTXSID4059833

>  <PREFERRED_NAME>
Perfluorohexanedioic acid

>  <CASRN>
336-08-3

>  <INCHIKEY>
AXRSOGFYDSXLQX-UHFFFAOYSA-N

>  <IUPAC_NAME>
Octafluorohexanedioic acid

>  <SMILES>
OC(=O)C(F)(F)C(F)(F)C(F)(F)C(F)(F)C(O)=O

>  <INCHI_STRING>
InChI=1S/C6H2F8O4/c7-3(8,1(15)16)5(11,12)6(13,14)4(9,10)2(17)18/h(H,15,16)(H,17,18)

>  <MOLECULAR_FORMULA>
C6H2F8O4

>  <AVERAGE_MASS>
290.065

>  <MONOISOTOPIC_MASS>
289.982533848

>  <MOL_FILE>
MOL_FILE

$$$$

  -INDIGO-02112615072D

 24 23  0  0  0  0  0  0  0  0999 V2000
   11.8668    1.8013    0.0000 F   0  0  0  0  0  0  0  0  0  0  0  0
   11.8668   -1.2787    0.0000 F   0  0  0  0  0  0  0  0  0  0  0  0
   10.3268    1.8013    0.0000 F   0  0  0  0  0  0  0  0  0  0  0  0
   10.3268   -1.2787    0.0000 F   0  0  0  0  0  0  0  0  0  0  0  0
   13.4068    1.8013    0.0000 F   0  0  0  0  0  0  0  0  0  0  0  0
   13.4068   -1.2787    0.0000 F   0  0  0  0  0  0  0  0  0  0  0  0
    8.7868    1.8013    0.0000 F   0  0  0  0  0  0  0  0  0  0  0  0
    8.7868   -1.2787    0.0000 F   0  0  0  0  0  0  0  0  0  0  0  0
   14.9468    1.8013    0.0000 F   0  0  0  0  0  0  0  0  0  0  0  0
   14.9468   -1.2787    0.0000 F   0  0  0  0  0  0  0  0  0  0  0  0
   18.0268    0.2613    0.0000 F   0  0  0  0  0  0  0  0  0  0  0  0
   16.4868    1.8013    0.0000 F   0  0  0  0  0  0  0  0  0  0  0  0
   16.4868   -1.2787    0.0000 F   0  0  0  0  0  0  0  0  0  0  0  0
    4.1668   -2.4061    0.0000 O   0  0  0  0  0  0  0  0  0  0  0  0
    4.1668    0.2613    0.0000 O   0  0  0  0  0  0  0  0  0  0  0  0
   11.8668    0.2613    0.0000 C   0  0  0  0  0  0  0  0  0  0  0  0
   10.3268    0.2613    0.0000 C   0  0  0  0  0  0  0  0  0  0  0  0
   13.4068    0.2613    0.0000 C   0  0  0  0  0  0  0  0  0  0  0  0
    8.7868    0.2613    0.0000 C   0  0  0  0  0  0  0  0  0  0  0  0
   14.9468    0.2613    0.0000 C   0  0  0  0  0  0  0  0  0  0  0  0
    7.2468    0.2613    0.0000 C   0  0  0  0  0  0  0  0  0  0  0  0
    6.4768   -1.0724    0.0000 C   0  0  0  0  0  0  0  0  0  0  0  0
   16.4868    0.2613    0.0000 C   0  0  0  0  0  0  0  0  0  0  0  0
    4.9368   -1.0724    0.0000 C   0  0  0  0  0  0  0  0  0  0  0  0
  1 16  1  0  0  0  0
  2 16  1  0  0  0  0
  3 17  1  0  0  0  0
  4 17  1  0  0  0  0
  5 18  1  0  0  0  0
  6 18  1  0  0  0  0
  7 19  1  0  0  0  0
  8 19  1  0  0  0  0
  9 20  1  0  0  0  0
 10 20  1  0  0  0  0
 11 23  1  0  0  0  0
 12 23  1  0  0  0  0
 13 23  1  0  0  0  0
 14 24  1  0  0  0  0
 15 24  2  0  0  0  0
 16 17  1  0  0  0  0
 16 18  1  0  0  0  0
 17 19  1  0  0  0  0
 18 20  1  0  0  0  0
 19 21  1  0  0  0  0
 20 23  1  0  0  0  0
 21 22  1  0  0  0  0
 22 24  1  0  0  0  0
M  END
>  <INPUT>
DTXSID70379917

>  <FOUND_BY>
DSSTox_Substance_Id

>  <DTXSID>
DTXSID70379917

>  <PREFERRED_NAME>
3-(Perfluorohexyl)propanoic acid

>  <CASRN>
27854-30-4

>  <INCHIKEY>
AAEJJSZYNKXKSW-UHFFFAOYSA-N

>  <IUPAC_NAME>
4,4,5,5,6,6,7,7,8,8,9,9,9-Tridecafluorononanoic acid

>  <SMILES>
OC(=O)CCC(F)(F)C(F)(F)C(F)(F)C(F)(F)C(F)(F)C(F)(F)F

>  <INCHI_STRING>
InChI=1S/C9H5F13O2/c10-4(11,2-1-3(23)24)5(12,13)6(14,15)7(16,17)8(18,19)9(20,21)22/h1-2H2,(H,23,24)

>  <MOLECULAR_FORMULA>
C9H5F13O2

>  <AVERAGE_MASS>
392.116

>  <MONOISOTOPIC_MASS>
392.00819552

>  <MOL_FILE>
MOL_FILE

$$$$

  -INDIGO-02112615072D

 12 11  0  0  0  0  0  0  0  0999 V2000
   11.9091    1.6432    0.0000 Br  0  0  0  0  0  0  0  0  0  0  0  0
    8.4717    1.4368    0.0000 F   0  0  0  0  0  0  0  0  0  0  0  0
   10.0117   -1.2305    0.0000 F   0  0  0  0  0  0  0  0  0  0  0  0
    9.8056    2.2070    0.0000 F   0  0  0  0  0  0  0  0  0  0  0  0
   11.3456   -0.4605    0.0000 F   0  0  0  0  0  0  0  0  0  0  0  0
    3.9069    0.1032    0.0000 O   0  0  0  0  0  0  0  0  0  0  0  0
    5.2407   -2.2070    0.0000 O   0  0  0  0  0  0  0  0  0  0  0  0
    7.9081   -0.6668    0.0000 C   0  0  0  0  0  0  0  0  0  0  0  0
    9.2417    0.1032    0.0000 C   0  0  0  0  0  0  0  0  0  0  0  0
    6.5744    0.1032    0.0000 C   0  0  0  0  0  0  0  0  0  0  0  0
   10.5756    0.8732    0.0000 C   0  0  0  0  0  0  0  0  0  0  0  0
    5.2407   -0.6668    0.0000 C   0  0  0  0  0  0  0  0  0  0  0  0
  1 11  1  0  0  0  0
  2  9  1  0  0  0  0
  3  9  1  0  0  0  0
  4 11  1  0  0  0  0
  5 11  1  0  0  0  0
  6 12  1  0  0  0  0
  7 12  2  0  0  0  0
  8  9  1  0  0  0  0
  8 10  1  0  0  0  0
  9 11  1  0  0  0  0
 10 12  1  0  0  0  0
M  END
>  <INPUT>
DTXSID90371317

>  <FOUND_BY>
DSSTox_Substance_Id

>  <DTXSID>
DTXSID90371317

>  <PREFERRED_NAME>
5-Bromo-4,4,5,5-tetrafluoropentanoic acid

>  <CASRN>
234443-22-2

>  <INCHIKEY>
OIIFPRVLJLLMOZ-UHFFFAOYSA-N

>  <IUPAC_NAME>
5-Bromo-4,4,5,5-tetrafluoropentanoic acid

>  <SMILES>
OC(=O)CCC(F)(F)C(F)(F)Br

>  <INCHI_STRING>
InChI=1S/C5H5BrF4O2/c6-5(9,10)4(7,8)2-1-3(11)12/h1-2H2,(H,11,12)

>  <MOLECULAR_FORMULA>
C5H5BrF4O2

>  <AVERAGE_MASS>
252.991

>  <MONOISOTOPIC_MASS>
251.940905

>  <MOL_FILE>
MOL_FILE

$$$$

  -INDIGO-02112615072D

 12 11  0  0  0  0  0  0  0  0999 V2000
    6.9917   -2.0691    0.0000 F   0  0  0  0  0  0  0  0  0  0  0  0
    6.9916    1.0109    0.0000 F   0  0  0  0  0  0  0  0  0  0  0  0
    5.4516   -2.0690    0.0000 F   0  0  0  0  0  0  0  0  0  0  0  0
    5.4516    1.0109    0.0000 F   0  0  0  0  0  0  0  0  0  0  0  0
   10.0718   -0.5291    0.0000 F   0  0  0  0  0  0  0  0  0  0  0  0
    8.5317   -2.0691    0.0000 F   0  0  0  0  0  0  0  0  0  0  0  0
    8.5318    1.0110    0.0000 F   0  0  0  0  0  0  0  0  0  0  0  0
    3.1417    0.8047    0.0000 O   0  0  0  0  0  0  0  0  0  0  0  0
    6.9917   -0.5290    0.0000 C   0  0  0  0  0  0  0  0  0  0  0  0
    5.4516   -0.5290    0.0000 C   0  0  0  0  0  0  0  0  0  0  0  0
    8.5317   -0.5290    0.0000 C   0  0  0  0  0  0  0  0  0  0  0  0
    3.9116   -0.5290    0.0000 C   0  0  0  0  0  0  0  0  0  0  0  0
  1  9  1  0  0  0  0
  2  9  1  0  0  0  0
  3 10  1  0  0  0  0
  4 10  1  0  0  0  0
  5 11  1  0  0  0  0
  6 11  1  0  0  0  0
  7 11  1  0  0  0  0
  8 12  2  0  0  0  0
  9 10  1  0  0  0  0
  9 11  1  0  0  0  0
 10 12  1  0  0  0  0
M  END
>  <INPUT>
DTXSID10190946

>  <FOUND_BY>
DSSTox_Substance_Id

>  <DTXSID>
DTXSID10190946

>  <PREFERRED_NAME>
Perfluorobutyraldehyde

>  <CASRN>
375-02-0

>  <INCHIKEY>
IQJZGNJYXIIMGP-UHFFFAOYSA-N

>  <IUPAC_NAME>
2,2,3,3,4,4,4-Heptafluorobutanal

>  <SMILES>
FC(F)(F)C(F)(F)C(F)(F)C=O

>  <INCHI_STRING>
InChI=1S/C4HF7O/c5-2(6,1-12)3(7,8)4(9,10)11/h1H


>  <MOLECULAR_FORMULA>
C4HF7O

>  <AVERAGE_MASS>
198.04

>  <MONOISOTOPIC_MASS>
197.991561793

>  <MOL_FILE>
MOL_FILE

$$$$

  -INDIGO-02112615072D

 21 20  0  0  0  0  0  0  0  0999 V2000
    9.7485    1.5400    0.0000 S   0  0  0  0  0  0  0  0  0  0  0  0
   12.4161    1.5400    0.0000 Si  0  0  0  0  0  0  0  0  0  0  0  0
    7.6449    2.1037    0.0000 F   0  0  0  0  0  0  0  0  0  0  0  0
    9.1849   -0.5637    0.0000 F   0  0  0  0  0  0  0  0  0  0  0  0
    6.3112    1.3337    0.0000 F   0  0  0  0  0  0  0  0  0  0  0  0
    7.8512   -1.3337    0.0000 F   0  0  0  0  0  0  0  0  0  0  0  0
    4.9775    0.5637    0.0000 F   0  0  0  0  0  0  0  0  0  0  0  0
    6.5175   -2.1037    0.0000 F   0  0  0  0  0  0  0  0  0  0  0  0
    3.0800   -2.3100    0.0000 F   0  0  0  0  0  0  0  0  0  0  0  0
    3.6437   -0.2065    0.0000 F   0  0  0  0  0  0  0  0  0  0  0  0
    5.1837   -2.8737    0.0000 F   0  0  0  0  0  0  0  0  0  0  0  0
   11.0824    2.3100    0.0000 O   0  0  0  0  0  0  0  0  0  0  0  0
   10.5187    0.2065    0.0000 O   0  0  0  0  0  0  0  0  0  0  0  0
    8.9785    2.8737    0.0000 O   0  0  0  0  0  0  0  0  0  0  0  0
    8.4149    0.7700    0.0000 C   0  0  0  0  0  0  0  0  0  0  0  0
    7.0812    0.0000    0.0000 C   0  0  0  0  0  0  0  0  0  0  0  0
    5.7475   -0.7700    0.0000 C   0  0  0  0  0  0  0  0  0  0  0  0
   13.7497    0.7700    0.0000 C   0  0  0  0  0  0  0  0  0  0  0  0
   13.1861    2.8737    0.0000 C   0  0  0  0  0  0  0  0  0  0  0  0
   11.6461    0.2065    0.0000 C   0  0  0  0  0  0  0  0  0  0  0  0
    4.4137   -1.5400    0.0000 C   0  0  0  0  0  0  0  0  0  0  0  0
  1 12  1  0  0  0  0
  1 13  2  0  0  0  0
  1 14  2  0  0  0  0
  1 15  1  0  0  0  0
  2 12  1  0  0  0  0
  2 18  1  0  0  0  0
  2 19  1  0  0  0  0
  2 20  1  0  0  0  0
  3 15  1  0  0  0  0
  4 15  1  0  0  0  0
  5 16  1  0  0  0  0
  6 16  1  0  0  0  0
  7 17  1  0  0  0  0
  8 17  1  0  0  0  0
  9 21  1  0  0  0  0
 10 21  1  0  0  0  0
 11 21  1  0  0  0  0
 15 16  1  0  0  0  0
 16 17  1  0  0  0  0
 17 21  1  0  0  0  0
M  END
>  <INPUT>
DTXSID00380753

>  <FOUND_BY>
DSSTox_Substance_Id

>  <DTXSID>
DTXSID00380753

>  <PREFERRED_NAME>
Trimethylsilyl perfluorobutanesulfonate

>  <CASRN>
68734-62-3

>  <INCHIKEY>
XMIPIKYUVSCYKT-UHFFFAOYSA-N

>  <IUPAC_NAME>
Trimethylsilyl nonafluorobutane-1-sulfonate

>  <SMILES>
C[Si](C)(C)OS(=O)(=O)C(F)(F)C(F)(F)C(F)(F)C(F)(F)F

>  <INCHI_STRING>
InChI=1S/C7H9F9O3SSi/c1-21(2,3)19-20(17,18)7(15,16)5(10,11)4(8,9)6(12,13)14/h1-3H3

>  <MOLECULAR_FORMULA>
C7H9F9O3SSi

>  <AVERAGE_MASS>
372.28

>  <MONOISOTOPIC_MASS>
371.989795326

>  <MOL_FILE>
MOL_FILE

$$$$

  -INDIGO-02112615072D

 22 21  0  0  0  0  0  0  0  0999 V2000
   11.3456   -0.9486    0.0000 F   0  0  0  0  0  0  0  0  0  0  0  0
    9.8056    1.7186    0.0000 F   0  0  0  0  0  0  0  0  0  0  0  0
    8.4717    0.9486    0.0000 F   0  0  0  0  0  0  0  0  0  0  0  0
   10.0117   -1.7186    0.0000 F   0  0  0  0  0  0  0  0  0  0  0  0
   12.6793   -0.1786    0.0000 F   0  0  0  0  0  0  0  0  0  0  0  0
   11.1391    2.4886    0.0000 F   0  0  0  0  0  0  0  0  0  0  0  0
    7.1381    0.1786    0.0000 F   0  0  0  0  0  0  0  0  0  0  0  0
    8.6781   -2.4886    0.0000 F   0  0  0  0  0  0  0  0  0  0  0  0
   14.0129    0.5914    0.0000 F   0  0  0  0  0  0  0  0  0  0  0  0
   12.4729    3.2586    0.0000 F   0  0  0  0  0  0  0  0  0  0  0  0
    5.8044   -0.5914    0.0000 F   0  0  0  0  0  0  0  0  0  0  0  0
    7.3444   -3.2586    0.0000 F   0  0  0  0  0  0  0  0  0  0  0  0
    3.9069   -1.9251    0.0000 O   0  0  0  0  0  0  0  0  0  0  0  0
   15.9103    1.9251    0.0000 O   0  0  0  0  0  0  0  0  0  0  0  0
    9.2417   -0.3851    0.0000 C   0  0  0  0  0  0  0  0  0  0  0  0
   10.5756    0.3851    0.0000 C   0  0  0  0  0  0  0  0  0  0  0  0
   11.9091    1.1551    0.0000 C   0  0  0  0  0  0  0  0  0  0  0  0
    7.9081   -1.1551    0.0000 C   0  0  0  0  0  0  0  0  0  0  0  0
   13.2429    1.9251    0.0000 C   0  0  0  0  0  0  0  0  0  0  0  0
    6.5744   -1.9251    0.0000 C   0  0  0  0  0  0  0  0  0  0  0  0
   14.5766    2.6951    0.0000 C   0  0  0  0  0  0  0  0  0  0  0  0
    5.2407   -2.6951    0.0000 C   0  0  0  0  0  0  0  0  0  0  0  0
  1 16  1  0  0  0  0
  2 16  1  0  0  0  0
  3 15  1  0  0  0  0
  4 15  1  0  0  0  0
  5 17  1  0  0  0  0
  6 17  1  0  0  0  0
  7 18  1  0  0  0  0
  8 18  1  0  0  0  0
  9 19  1  0  0  0  0
 10 19  1  0  0  0  0
 11 20  1  0  0  0  0
 12 20  1  0  0  0  0
 13 22  1  0  0  0  0
 14 21  1  0  0  0  0
 15 16  1  0  0  0  0
 15 18  1  0  0  0  0
 16 17  1  0  0  0  0
 17 19  1  0  0  0  0
 18 20  1  0  0  0  0
 19 21  1  0  0  0  0
 20 22  1  0  0  0  0
M  END
>  <INPUT>
DTXSID30396867

>  <FOUND_BY>
DSSTox_Substance_Id

>  <DTXSID>
DTXSID30396867

>  <PREFERRED_NAME>
1H,1H,8H,8H-Perfluorooctane-1,8-diol

>  <CASRN>
90177-96-1

>  <INCHIKEY>
XZJPYETUABEQFI-UHFFFAOYSA-N

>  <IUPAC_NAME>
2,2,3,3,4,4,5,5,6,6,7,7-Dodecafluorooctane-1,8-diol

>  <SMILES>
OCC(F)(F)C(F)(F)C(F)(F)C(F)(F)C(F)(F)C(F)(F)CO

>  <INCHI_STRING>
InChI=1S/C8H6F12O2/c9-3(10,1-21)5(13,14)7(17,18)8(19,20)6(15,16)4(11,12)2-22/h21-22H,1-2H2

>  <MOLECULAR_FORMULA>
C8H6F12O2

>  <AVERAGE_MASS>
362.115

>  <MONOISOTOPIC_MASS>
362.017617389

>  <MOL_FILE>
MOL_FILE

$$$$

  -INDIGO-02112615072D

 18 17  0  0  0  0  0  0  0  0999 V2000
   -4.1396   -1.9042    0.0000 F   0  0  0  0  0  0  0  0  0  0  0  0
   -2.5996   -1.9042    0.0000 C   0  0  0  0  0  0  0  0  0  0  0  0
   -2.5996   -3.4442    0.0000 F   0  0  0  0  0  0  0  0  0  0  0  0
   -2.5996   -0.3560    0.0000 I   0  0  0  0  0  0  0  0  0  0  0  0
   -1.0514   -1.9042    0.0000 C   0  0  0  0  0  0  0  0  0  0  0  0
   -1.0514   -3.4442    0.0000 F   0  0  0  0  0  0  0  0  0  0  0  0
   -1.0514   -0.3560    0.0000 F   0  0  0  0  0  0  0  0  0  0  0  0
    0.4884   -1.9042    0.0000 O   0  0  0  0  0  0  0  0  0  0  0  0
    1.2585   -0.5631    0.0000 C   0  0  0  0  0  0  0  0  0  0  0  0
    2.5998   -1.3330    0.0000 F   0  0  0  0  0  0  0  0  0  0  0  0
   -0.0744    0.2070    0.0000 F   0  0  0  0  0  0  0  0  0  0  0  0
    2.0284    0.7700    0.0000 C   0  0  0  0  0  0  0  0  0  0  0  0
    3.3697   -0.0001    0.0000 F   0  0  0  0  0  0  0  0  0  0  0  0
    0.6955    1.5399    0.0000 F   0  0  0  0  0  0  0  0  0  0  0  0
    2.8067    2.1029    0.0000 S   0  0  0  0  0  0  0  0  0  0  0  0
    4.1396    1.3330    0.0000 F   0  0  0  0  0  0  0  0  0  0  0  0
    1.4656    2.8812    0.0000 O   0  0  0  0  0  0  0  0  0  0  0  0
    3.5767    3.4442    0.0000 O   0  0  0  0  0  0  0  0  0  0  0  0
  1  2  1  0  0  0  0
  2  3  1  0  0  0  0
  2  4  1  0  0  0  0
  2  5  1  0  0  0  0
  5  6  1  0  0  0  0
  5  7  1  0  0  0  0
  5  8  1  0  0  0  0
  8  9  1  0  0  0  0
  9 10  1  0  0  0  0
  9 11  1  0  0  0  0
  9 12  1  0  0  0  0
 12 13  1  0  0  0  0
 12 14  1  0  0  0  0
 12 15  1  0  0  0  0
 15 16  1  0  0  0  0
 15 17  2  0  0  0  0
 15 18  2  0  0  0  0
M  END
>  <INPUT>
DTXSID90880555

>  <FOUND_BY>
DSSTox_Substance_Id

>  <DTXSID>
DTXSID90880555

>  <PREFERRED_NAME>
5-Iodoperfluoro-3-oxapentanesulfonyl fluoride

>  <CASRN>
66137-74-4

>  <INCHIKEY>
XSLYISNQTJHKMP-UHFFFAOYSA-N

>  <IUPAC_NAME>
1,1,2,2-Tetrafluoro-2-(1,1,2,2-tetrafluoro-2-iodoethoxy)ethane-1-sulfonyl fluoride

>  <SMILES>
FC(F)(I)C(F)(F)OC(F)(F)C(F)(F)S(F)(=O)=O

>  <INCHI_STRING>
InChI=1S/C4F9IO3S/c5-1(6,14)2(7,8)17-3(9,10)4(11,12)18(13,15)16

>  <MOLECULAR_FORMULA>
C4F9IO3S

>  <AVERAGE_MASS>
425.99

>  <MONOISOTOPIC_MASS>
425.84691

>  <MOL_FILE>
MOL_FILE

$$$$

  -INDIGO-02112615072D

 15 14  0  0  0  0  0  0  0  0999 V2000
    7.1381    0.9486    0.0000 F   0  0  0  0  0  0  0  0  0  0  0  0
    8.6781   -1.7186    0.0000 F   0  0  0  0  0  0  0  0  0  0  0  0
    5.8044    0.1786    0.0000 F   0  0  0  0  0  0  0  0  0  0  0  0
    7.3444   -2.4886    0.0000 F   0  0  0  0  0  0  0  0  0  0  0  0
    8.4717    1.7186    0.0000 F   0  0  0  0  0  0  0  0  0  0  0  0
   10.0117   -0.9486    0.0000 F   0  0  0  0  0  0  0  0  0  0  0  0
   11.9091    1.9251    0.0000 F   0  0  0  0  0  0  0  0  0  0  0  0
   11.3456   -0.1786    0.0000 F   0  0  0  0  0  0  0  0  0  0  0  0
    9.8056    2.4886    0.0000 F   0  0  0  0  0  0  0  0  0  0  0  0
    3.9069   -1.1551    0.0000 N   0  0  0  0  0  0  0  0  0  0  0  0
    7.9081   -0.3851    0.0000 C   0  0  0  0  0  0  0  0  0  0  0  0
    6.5744   -1.1551    0.0000 C   0  0  0  0  0  0  0  0  0  0  0  0
    9.2417    0.3851    0.0000 C   0  0  0  0  0  0  0  0  0  0  0  0
    5.2407   -1.9251    0.0000 C   0  0  0  0  0  0  0  0  0  0  0  0
   10.5756    1.1551    0.0000 C   0  0  0  0  0  0  0  0  0  0  0  0
  1 11  1  0  0  0  0
  2 11  1  0  0  0  0
  3 12  1  0  0  0  0
  4 12  1  0  0  0  0
  5 13  1  0  0  0  0
  6 13  1  0  0  0  0
  7 15  1  0  0  0  0
  8 15  1  0  0  0  0
  9 15  1  0  0  0  0
 10 14  1  0  0  0  0
 11 12  1  0  0  0  0
 11 13  1  0  0  0  0
 12 14  1  0  0  0  0
 13 15  1  0  0  0  0
M  END
>  <INPUT>
DTXSID60377826

>  <FOUND_BY>
DSSTox_Substance_Id

>  <DTXSID>
DTXSID60377826

>  <PREFERRED_NAME>
1H,1H-Perfluoropentylamine

>  <CASRN>
355-27-1

>  <INCHIKEY>
SUNUNYBGDFIAME-UHFFFAOYSA-N

>  <IUPAC_NAME>
2,2,3,3,4,4,5,5,5-Nonafluoropentan-1-amine

>  <SMILES>
NCC(F)(F)C(F)(F)C(F)(F)C(F)(F)F

>  <INCHI_STRING>
InChI=1S/C5H4F9N/c6-2(7,1-15)3(8,9)4(10,11)5(12,13)14/h1,15H2

>  <MOLECULAR_FORMULA>
C5H4F9N

>  <AVERAGE_MASS>
249.08

>  <MONOISOTOPIC_MASS>
249.0200026

>  <MOL_FILE>
MOL_FILE

$$$$

  -INDIGO-02112615072D

 16 15  0  0  0  0  0  0  0  0999 V2000
    7.6449    2.2070    0.0000 F   0  0  0  0  0  0  0  0  0  0  0  0
    9.1849   -0.4605    0.0000 F   0  0  0  0  0  0  0  0  0  0  0  0
    6.3112    1.4368    0.0000 F   0  0  0  0  0  0  0  0  0  0  0  0
    7.8512   -1.2305    0.0000 F   0  0  0  0  0  0  0  0  0  0  0  0
    4.9775    0.6668    0.0000 F   0  0  0  0  0  0  0  0  0  0  0  0
    6.5175   -2.0005    0.0000 F   0  0  0  0  0  0  0  0  0  0  0  0
    3.0800   -0.6668    0.0000 F   0  0  0  0  0  0  0  0  0  0  0  0
    4.4137   -2.9770    0.0000 F   0  0  0  0  0  0  0  0  0  0  0  0
   11.0824    2.4132    0.0000 O   0  0  0  0  0  0  0  0  0  0  0  0
    9.7485    1.6432    0.0000 C   0  0  0  0  0  0  0  0  0  0  0  0
    8.4149    0.8732    0.0000 C   0  0  0  0  0  0  0  0  0  0  0  0
    7.0812    0.1032    0.0000 C   0  0  0  0  0  0  0  0  0  0  0  0
    5.7475   -0.6668    0.0000 C   0  0  0  0  0  0  0  0  0  0  0  0
   10.5187    0.3095    0.0000 C   0  0  0  0  0  0  0  0  0  0  0  0
    8.9785    2.9770    0.0000 C   0  0  0  0  0  0  0  0  0  0  0  0
    4.4137   -1.4368    0.0000 C   0  0  0  0  0  0  0  0  0  0  0  0
  1 11  1  0  0  0  0
  2 11  1  0  0  0  0
  3 12  1  0  0  0  0
  4 12  1  0  0  0  0
  5 13  1  0  0  0  0
  6 13  1  0  0  0  0
  7 16  1  0  0  0  0
  8 16  1  0  0  0  0
  9 10  1  0  0  0  0
 10 11  1  0  0  0  0
 10 14  1  0  0  0  0
 10 15  1  0  0  0  0
 11 12  1  0  0  0  0
 12 13  1  0  0  0  0
 13 16  1  0  0  0  0
M  END
>  <INPUT>
DTXSID70292859

>  <FOUND_BY>
DSSTox_Substance_Id

>  <DTXSID>
DTXSID70292859

>  <PREFERRED_NAME>
2-(4H-Perfluorobutyl)-2-propanol

>  <CASRN>
2673-15-6

>  <INCHIKEY>
RTFCOQNRRQBMIT-UHFFFAOYSA-N

>  <IUPAC_NAME>
3,3,4,4,5,5,6,6-Octafluoro-2-methylhexan-2-ol

>  <SMILES>
CC(C)(O)C(F)(F)C(F)(F)C(F)(F)C(F)F

>  <INCHI_STRING>
InChI=1S/C7H8F8O/c1-4(2,16)6(12,13)7(14,15)5(10,11)3(8)9/h3,16H,1-2H3

>  <MOLECULAR_FORMULA>
C7H8F8O

>  <AVERAGE_MASS>
260.127

>  <MONOISOTOPIC_MASS>
260.044740182

>  <MOL_FILE>
MOL_FILE

$$$$

  -INDIGO-02112615072D

 11 10  0  0  0  0  0  0  0  0999 V2000
    1.5400   -4.6200    0.0000 F   0  0  0  0  0  0  0  0  0  0  0  0
    1.5400   -3.0800    0.0000 C   0  0  0  0  0  0  0  0  0  0  0  0
    3.0800   -3.0800    0.0000 F   0  0  0  0  0  0  0  0  0  0  0  0
    0.0000   -3.0800    0.0000 F   0  0  0  0  0  0  0  0  0  0  0  0
    1.5400   -1.5400    0.0000 C   0  0  0  0  0  0  0  0  0  0  0  0
    3.0800   -1.5400    0.0000 F   0  0  0  0  0  0  0  0  0  0  0  0
    0.0000   -1.5400    0.0000 F   0  0  0  0  0  0  0  0  0  0  0  0
    1.5400    0.0000    0.0000 C   0  0  0  0  0  0  0  0  0  0  0  0
    1.5400    1.5400    0.0000 F   0  0  0  0  0  0  0  0  0  0  0  0
    3.0800    0.0000    0.0000 F   0  0  0  0  0  0  0  0  0  0  0  0
    0.0000    0.0000    0.0000 Br  0  0  0  0  0  0  0  0  0  0  0  0
  1  2  1  0  0  0  0
  2  3  1  0  0  0  0
  2  4  1  0  0  0  0
  2  5  1  0  0  0  0
  5  6  1  0  0  0  0
  5  7  1  0  0  0  0
  5  8  1  0  0  0  0
  8  9  1  0  0  0  0
  8 10  1  0  0  0  0
  8 11  1  0  0  0  0
M  END
>  <INPUT>
DTXSID3059971

>  <FOUND_BY>
DSSTox_Substance_Id

>  <DTXSID>
DTXSID3059971

>  <PREFERRED_NAME>
1-Bromoheptafluoropropane

>  <CASRN>
422-85-5

>  <INCHIKEY>
LANNRYWUUQMNPF-UHFFFAOYSA-N

>  <IUPAC_NAME>
1-Bromo-1,1,2,2,3,3,3-heptafluoropropane

>  <SMILES>
FC(F)(F)C(F)(F)C(F)(F)Br

>  <INCHI_STRING>
InChI=1S/C3BrF7/c4-2(7,8)1(5,6)3(9,10)11

>  <MOLECULAR_FORMULA>
C3BrF7

>  <AVERAGE_MASS>
248.926

>  <MONOISOTOPIC_MASS>
247.90716

>  <MOL_FILE>
MOL_FILE

$$$$

  -INDIGO-02112615072D

 18 17  0  0  0  0  0  0  0  0999 V2000
    9.9087    0.2062    0.0000 F   0  0  0  0  0  0  0  0  0  0  0  0
    9.9088   -2.8737    0.0000 F   0  0  0  0  0  0  0  0  0  0  0  0
   11.4486    0.2063    0.0000 F   0  0  0  0  0  0  0  0  0  0  0  0
   11.4488   -2.8737    0.0000 F   0  0  0  0  0  0  0  0  0  0  0  0
   12.9887    0.2063    0.0000 F   0  0  0  0  0  0  0  0  0  0  0  0
   12.9887   -2.8737    0.0000 F   0  0  0  0  0  0  0  0  0  0  0  0
   16.0688   -1.3337    0.0000 F   0  0  0  0  0  0  0  0  0  0  0  0
   14.5287   -2.8737    0.0000 F   0  0  0  0  0  0  0  0  0  0  0  0
   14.5287    0.2062    0.0000 F   0  0  0  0  0  0  0  0  0  0  0  0
    3.7485    1.3337    0.0000 O   0  0  0  0  0  0  0  0  0  0  0  0
    9.9087   -1.3338    0.0000 C   0  0  0  0  0  0  0  0  0  0  0  0
    8.3685   -1.3337    0.0000 C   0  0  0  0  0  0  0  0  0  0  0  0
   11.4486   -1.3338    0.0000 C   0  0  0  0  0  0  0  0  0  0  0  0
    7.5986   -0.0001    0.0000 C   0  0  0  0  0  0  0  0  0  0  0  0
   12.9887   -1.3336    0.0000 C   0  0  0  0  0  0  0  0  0  0  0  0
    6.0586   -0.0001    0.0000 C   0  0  0  0  0  0  0  0  0  0  0  0
   14.5288   -1.3336    0.0000 C   0  0  0  0  0  0  0  0  0  0  0  0
    5.2885    1.3336    0.0000 C   0  0  0  0  0  0  0  0  0  0  0  0
  1 11  1  0  0  0  0
  2 11  1  0  0  0  0
  3 13  1  0  0  0  0
  4 13  1  0  0  0  0
  5 15  1  0  0  0  0
  6 15  1  0  0  0  0
  7 17  1  0  0  0  0
  8 17  1  0  0  0  0
  9 17  1  0  0  0  0
 10 18  1  0  0  0  0
 11 12  1  0  0  0  0
 11 13  1  0  0  0  0
 12 14  1  0  0  0  0
 13 15  1  0  0  0  0
 14 16  1  0  0  0  0
 15 17  1  0  0  0  0
 16 18  1  0  0  0  0
M  END
>  <INPUT>
DTXSID60377821

>  <FOUND_BY>
DSSTox_Substance_Id

>  <DTXSID>
DTXSID60377821

>  <PREFERRED_NAME>
4:4 Fluorotelomer alcohol

>  <CASRN>
3792-02-7

>  <INCHIKEY>
FROXCSGRCWYTIE-UHFFFAOYSA-N

>  <IUPAC_NAME>
5,5,6,6,7,7,8,8,8-Nonafluorooctan-1-ol

>  <SMILES>
OCCCCC(F)(F)C(F)(F)C(F)(F)C(F)(F)F

>  <INCHI_STRING>
InChI=1S/C8H9F9O/c9-5(10,3-1-2-4-18)6(11,12)7(13,14)8(15,16)17/h18H,1-4H2


>  <MOLECULAR_FORMULA>
C8H9F9O

>  <AVERAGE_MASS>
292.145

>  <MONOISOTOPIC_MASS>
292.050968377

>  <MOL_FILE>
MOL_FILE

$$$$

  -INDIGO-02112615072D

 20 20  0  0  0  0  0  0  0  0999 V2000
    6.1106    0.8148    0.0000 F   0  0  0  0  0  0  0  0  0  0  0  0
    7.6506   -1.8526    0.0000 F   0  0  0  0  0  0  0  0  0  0  0  0
    4.7770    0.0448    0.0000 F   0  0  0  0  0  0  0  0  0  0  0  0
    6.3170   -2.6226    0.0000 F   0  0  0  0  0  0  0  0  0  0  0  0
    8.9843   -1.0826    0.0000 F   0  0  0  0  0  0  0  0  0  0  0  0
   10.8817    1.7911    0.0000 F   0  0  0  0  0  0  0  0  0  0  0  0
    8.7780    2.3548    0.0000 F   0  0  0  0  0  0  0  0  0  0  0  0
   10.3180   -0.3126    0.0000 F   0  0  0  0  0  0  0  0  0  0  0  0
    6.6743    2.9185    0.0000 F   0  0  0  0  0  0  0  0  0  0  0  0
    8.0707    2.9916    0.0000 F   0  0  0  0  0  0  0  0  0  0  0  0
    5.9128    1.7458    0.0000 F   0  0  0  0  0  0  0  0  0  0  0  0
    3.4433   -4.9326    0.0000 O   0  0  0  0  0  0  0  0  0  0  0  0
    4.2133   -3.5989    0.0000 C   0  0  0  0  0  0  0  0  0  0  0  0
    4.2133   -2.0589    0.0000 C   0  0  0  0  0  0  0  0  0  0  0  0
    5.5470   -1.2889    0.0000 C   0  0  0  0  0  0  0  0  0  0  0  0
    6.8806   -0.5189    0.0000 C   0  0  0  0  0  0  0  0  0  0  0  0
    8.2143    0.2511    0.0000 C   0  0  0  0  0  0  0  0  0  0  0  0
    4.9833   -4.9326    0.0000 C   0  0  0  0  0  0  0  0  0  0  0  0
    9.5480    1.0211    0.0000 C   0  0  0  0  0  0  0  0  0  0  0  0
    7.4443    1.5848    0.0000 C   0  0  0  0  0  0  0  0  0  0  0  0
  1 16  1  0  0  0  0
  2 16  1  0  0  0  0
  3 15  1  0  0  0  0
  4 15  1  0  0  0  0
  5 17  1  0  0  0  0
  6 19  1  0  0  0  0
  7 19  1  0  0  0  0
  8 19  1  0  0  0  0
  9 20  1  0  0  0  0
 10 20  1  0  0  0  0
 11 20  1  0  0  0  0
 12 13  1  0  0  0  0
 12 18  1  0  0  0  0
 13 14  1  0  0  0  0
 13 18  1  0  0  0  0
 14 15  1  0  0  0  0
 15 16  1  0  0  0  0
 16 17  1  0  0  0  0
 17 19  1  0  0  0  0
 17 20  1  0  0  0  0
M  END
>  <INPUT>
DTXSID00379884

>  <FOUND_BY>
DSSTox_Substance_Id

>  <DTXSID>
DTXSID00379884

>  <PREFERRED_NAME>
3-(Perfluoro-3-methylbutyl)-1,2-epoxypropane

>  <CASRN>
54009-81-3

>  <INCHIKEY>
BKXKCZGEIQKTBI-UHFFFAOYNA-N

>  <IUPAC_NAME>
2-[2,2,3,3,4,5,5,5-Octafluoro-4-(trifluoromethyl)pentyl]oxirane

>  <SMILES>
FC(F)(F)C(F)(C(F)(F)F)C(F)(F)C(F)(F)CC1CO1

>  <INCHI_STRING>
InChI=1/C8H5F11O/c9-4(10,1-3-2-20-3)6(12,13)5(11,7(14,15)16)8(17,18)19/h3H,1-2H2


>  <MOLECULAR_FORMULA>
C8H5F11O

>  <AVERAGE_MASS>
326.109

>  <MONOISOTOPIC_MASS>
326.016474574

>  <MOL_FILE>
MOL_FILE

$$$$

  -INDIGO-02112615072D

 28 27  0  0  0  0  0  0  0  0999 V2000
    3.9069   -3.4651    0.0000 S   0  0  0  0  0  0  0  0  0  0  0  0
   11.1391    0.9486    0.0000 F   0  0  0  0  0  0  0  0  0  0  0  0
   12.6793   -1.7186    0.0000 F   0  0  0  0  0  0  0  0  0  0  0  0
    9.8056    0.1786    0.0000 F   0  0  0  0  0  0  0  0  0  0  0  0
   11.3456   -2.4886    0.0000 F   0  0  0  0  0  0  0  0  0  0  0  0
   12.4729    1.7186    0.0000 F   0  0  0  0  0  0  0  0  0  0  0  0
   14.0129   -0.9486    0.0000 F   0  0  0  0  0  0  0  0  0  0  0  0
    8.4717   -0.5914    0.0000 F   0  0  0  0  0  0  0  0  0  0  0  0
   10.0117   -3.2586    0.0000 F   0  0  0  0  0  0  0  0  0  0  0  0
   15.3466   -0.1786    0.0000 F   0  0  0  0  0  0  0  0  0  0  0  0
   13.8066    2.4886    0.0000 F   0  0  0  0  0  0  0  0  0  0  0  0
    7.1381   -1.3614    0.0000 F   0  0  0  0  0  0  0  0  0  0  0  0
    8.6781   -4.0286    0.0000 F   0  0  0  0  0  0  0  0  0  0  0  0
   16.6803    0.5914    0.0000 F   0  0  0  0  0  0  0  0  0  0  0  0
   15.1403    3.2586    0.0000 F   0  0  0  0  0  0  0  0  0  0  0  0
   18.5778    3.4651    0.0000 F   0  0  0  0  0  0  0  0  0  0  0  0
   18.0141    1.3614    0.0000 F   0  0  0  0  0  0  0  0  0  0  0  0
   16.4741    4.0286    0.0000 F   0  0  0  0  0  0  0  0  0  0  0  0
   11.9091   -0.3851    0.0000 C   0  0  0  0  0  0  0  0  0  0  0  0
   10.5756   -1.1551    0.0000 C   0  0  0  0  0  0  0  0  0  0  0  0
   13.2429    0.3851    0.0000 C   0  0  0  0  0  0  0  0  0  0  0  0
    9.2417   -1.9251    0.0000 C   0  0  0  0  0  0  0  0  0  0  0  0
   14.5766    1.1551    0.0000 C   0  0  0  0  0  0  0  0  0  0  0  0
    7.9081   -2.6951    0.0000 C   0  0  0  0  0  0  0  0  0  0  0  0
   15.9103    1.9251    0.0000 C   0  0  0  0  0  0  0  0  0  0  0  0
    6.5744   -3.4651    0.0000 C   0  0  0  0  0  0  0  0  0  0  0  0
   17.2441    2.6951    0.0000 C   0  0  0  0  0  0  0  0  0  0  0  0
    5.2407   -2.6951    0.0000 C   0  0  0  0  0  0  0  0  0  0  0  0
  1 28  1  0  0  0  0
  2 19  1  0  0  0  0
  3 19  1  0  0  0  0
  4 20  1  0  0  0  0
  5 20  1  0  0  0  0
  6 21  1  0  0  0  0
  7 21  1  0  0  0  0
  8 22  1  0  0  0  0
  9 22  1  0  0  0  0
 10 23  1  0  0  0  0
 11 23  1  0  0  0  0
 12 24  1  0  0  0  0
 13 24  1  0  0  0  0
 14 25  1  0  0  0  0
 15 25  1  0  0  0  0
 16 27  1  0  0  0  0
 17 27  1  0  0  0  0
 18 27  1  0  0  0  0
 19 20  1  0  0  0  0
 19 21  1  0  0  0  0
 20 22  1  0  0  0  0
 21 23  1  0  0  0  0
 22 24  1  0  0  0  0
 23 25  1  0  0  0  0
 24 26  1  0  0  0  0
 25 27  1  0  0  0  0
 26 28  1  0  0  0  0
M  END
>  <INPUT>
DTXSID20337446

>  <FOUND_BY>
DSSTox_Substance_Id

>  <DTXSID>
DTXSID20337446

>  <PREFERRED_NAME>
2-(Perfluorooctyl)ethanthiol

>  <CASRN>
34143-74-3

>  <INCHIKEY>
URJIJZCEKHSLHA-UHFFFAOYSA-N

>  <IUPAC_NAME>
3,3,4,4,5,5,6,6,7,7,8,8,9,9,10,10,10-Heptadecafluorodecane-1-thiol

>  <SMILES>
FC(F)(F)C(F)(F)C(F)(F)C(F)(F)C(F)(F)C(F)(F)C(F)(F)C(F)(F)CCS

>  <INCHI_STRING>
InChI=1S/C10H5F17S/c11-3(12,1-2-28)4(13,14)5(15,16)6(17,18)7(19,20)8(21,22)9(23,24)10(25,26)27/h28H,1-2H2

>  <MOLECULAR_FORMULA>
C10H5F17S

>  <AVERAGE_MASS>
480.18

>  <MONOISOTOPIC_MASS>
479.984050106

>  <MOL_FILE>
MOL_FILE

$$$$

  -INDIGO-02112615072D

 19 18  0  0  0  0  0  0  0  0999 V2000
    1.5400    0.0000    0.0000 C   0  0  0  0  0  0  0  0  0  0  0  0
    1.5400   -1.5400    0.0000 C   0  0  0  0  0  0  0  0  0  0  0  0
    1.5400   -3.0800    0.0000 C   0  0  0  0  0  0  0  0  0  0  0  0
    2.8737   -3.8500    0.0000 O   0  0  0  0  0  0  0  0  0  0  0  0
    2.8737   -5.3900    0.0000 C   0  0  0  0  0  0  0  0  0  0  0  0
    4.2073   -6.1600    0.0000 C   0  0  0  0  0  0  0  0  0  0  0  0
    0.2063   -3.8500    0.0000 O   0  0  0  0  0  0  0  0  0  0  0  0
    3.0800   -1.5400    0.0000 F   0  0  0  0  0  0  0  0  0  0  0  0
    0.0000   -1.5400    0.0000 F   0  0  0  0  0  0  0  0  0  0  0  0
    1.5400    1.5400    0.0000 C   0  0  0  0  0  0  0  0  0  0  0  0
    1.5400    3.0800    0.0000 C   0  0  0  0  0  0  0  0  0  0  0  0
    0.2063    3.8500    0.0000 O   0  0  0  0  0  0  0  0  0  0  0  0
    0.2063    5.3900    0.0000 C   0  0  0  0  0  0  0  0  0  0  0  0
   -1.1273    6.1600    0.0000 C   0  0  0  0  0  0  0  0  0  0  0  0
    2.8737    3.8500    0.0000 O   0  0  0  0  0  0  0  0  0  0  0  0
    3.0800    1.5400    0.0000 F   0  0  0  0  0  0  0  0  0  0  0  0
    0.0000    1.5400    0.0000 F   0  0  0  0  0  0  0  0  0  0  0  0
    3.0800    0.0000    0.0000 F   0  0  0  0  0  0  0  0  0  0  0  0
    0.0000    0.0000    0.0000 F   0  0  0  0  0  0  0  0  0  0  0  0
  1  2  1  0  0  0  0
  2  3  1  0  0  0  0
  3  4  1  0  0  0  0
  4  5  1  0  0  0  0
  5  6  1  0  0  0  0
  3  7  2  0  0  0  0
  2  8  1  0  0  0  0
  2  9  1  0  0  0  0
  1 10  1  0  0  0  0
 10 11  1  0  0  0  0
 11 12  1  0  0  0  0
 12 13  1  0  0  0  0
 13 14  1  0  0  0  0
 11 15  2  0  0  0  0
 10 16  1  0  0  0  0
 10 17  1  0  0  0  0
  1 18  1  0  0  0  0
  1 19  1  0  0  0  0
M  END
>  <INPUT>
DTXSID3059977

>  <FOUND_BY>
DSSTox_Substance_Id

>  <DTXSID>
DTXSID3059977

>  <PREFERRED_NAME>
Diethyl perfluoroglutarate

>  <CASRN>
424-40-8

>  <INCHIKEY>
MSDPXVBLFJODJO-UHFFFAOYSA-N

>  <IUPAC_NAME>
Diethyl hexafluoropentanedioate

>  <SMILES>
CCOC(=O)C(F)(F)C(F)(F)C(F)(F)C(=O)OCC

>  <INCHI_STRING>
InChI=1S/C9H10F6O4/c1-3-18-5(16)7(10,11)9(14,15)8(12,13)6(17)19-4-2/h3-4H2,1-2H3

>  <MOLECULAR_FORMULA>
C9H10F6O4

>  <AVERAGE_MASS>
296.165

>  <MONOISOTOPIC_MASS>
296.04832778

>  <MOL_FILE>
MOL_FILE

$$$$

  -INDIGO-02112615072D

 18 18  0  0  0  0  0  0  0  0999 V2000
    2.3100   -0.7700    0.0000 F   0  0  0  0  0  0  0  0  0  0  0  0
    2.3100    0.7700    0.0000 F   0  0  0  0  0  0  0  0  0  0  0  0
   -2.3100   -0.7700    0.0000 F   0  0  0  0  0  0  0  0  0  0  0  0
   -1.7597   -1.9497    0.0000 F   0  0  0  0  0  0  0  0  0  0  0  0
   -2.3100    0.7700    0.0000 F   0  0  0  0  0  0  0  0  0  0  0  0
   -1.7599    1.9497    0.0000 F   0  0  0  0  0  0  0  0  0  0  0  0
    0.7700   -3.8500    0.0000 F   0  0  0  0  0  0  0  0  0  0  0  0
    2.3100   -2.3100    0.0000 F   0  0  0  0  0  0  0  0  0  0  0  0
   -0.4097   -3.2997    0.0000 F   0  0  0  0  0  0  0  0  0  0  0  0
   -0.4095    3.3001    0.0000 F   0  0  0  0  0  0  0  0  0  0  0  0
    2.3100    2.3100    0.0000 F   0  0  0  0  0  0  0  0  0  0  0  0
    0.7700    3.8500    0.0000 F   0  0  0  0  0  0  0  0  0  0  0  0
    0.7700   -0.7700    0.0000 C   0  0  0  0  0  0  0  0  0  0  0  0
    0.7700    0.7700    0.0000 C   0  0  0  0  0  0  0  0  0  0  0  0
   -0.7700   -0.7700    0.0000 C   0  0  0  0  0  0  0  0  0  0  0  0
   -0.7700    0.7700    0.0000 C   0  0  0  0  0  0  0  0  0  0  0  0
    0.7700   -2.3100    0.0000 C   0  0  0  0  0  0  0  0  0  0  0  0
    0.7700    2.3100    0.0000 C   0  0  0  0  0  0  0  0  0  0  0  0
  1 13  1  0  0  0  0
  2 14  1  0  0  0  0
  3 15  1  0  0  0  0
  4 15  1  0  0  0  0
  5 16  1  0  0  0  0
  6 16  1  0  0  0  0
  7 17  1  0  0  0  0
  8 17  1  0  0  0  0
  9 17  1  0  0  0  0
 10 18  1  0  0  0  0
 11 18  1  0  0  0  0
 12 18  1  0  0  0  0
 13 14  1  0  0  0  0
 13 15  1  0  0  0  0
 13 17  1  0  0  0  0
 14 16  1  0  0  0  0
 14 18  1  0  0  0  0
 15 16  1  0  0  0  0
M  END
>  <INPUT>
DTXSID20880189

>  <FOUND_BY>
DSSTox_Substance_Id

>  <DTXSID>
DTXSID20880189

>  <PREFERRED_NAME>
Perfluoro-1,2-dimethylcyclobutane

>  <CASRN>
2994-71-0

>  <INCHIKEY>
RBTROQHBNLSUTL-UHFFFAOYNA-N

>  <IUPAC_NAME>
1,1,2,2,3,4-Hexafluoro-3,4-bis(trifluoromethyl)cyclobutane

>  <SMILES>
FC(F)(F)C1(F)C(F)(F)C(F)(F)C1(F)C(F)(F)F

>  <INCHI_STRING>
InChI=1S/C6F12/c7-1(5(13,14)15)2(8,6(16,17)18)4(11,12)3(1,9)10

>  <MOLECULAR_FORMULA>
C6F12

>  <AVERAGE_MASS>
300.047

>  <MONOISOTOPIC_MASS>
299.980837956

>  <MOL_FILE>
MOL_FILE

$$$$

  -INDIGO-02112615072D

  9  8  0  0  0  0  0  0  0  0999 V2000
    1.5400    0.0000    0.0000 C   0  0  0  0  0  0  0  0  0  0  0  0
    1.5400   -1.5400    0.0000 C   0  0  0  0  0  0  0  0  0  0  0  0
    1.5400   -3.0800    0.0000 F   0  0  0  0  0  0  0  0  0  0  0  0
    3.0800   -1.5400    0.0000 F   0  0  0  0  0  0  0  0  0  0  0  0
    0.0000   -1.5400    0.0000 F   0  0  0  0  0  0  0  0  0  0  0  0
    1.5400    1.5400    0.0000 C   0  0  0  0  0  0  0  0  0  0  0  0
    0.2063    2.3100    0.0000 O   0  0  0  0  0  0  0  0  0  0  0  0
    3.0800    0.0000    0.0000 F   0  0  0  0  0  0  0  0  0  0  0  0
    0.0000    0.0000    0.0000 F   0  0  0  0  0  0  0  0  0  0  0  0
  1  2  1  0  0  0  0
  2  3  1  0  0  0  0
  2  4  1  0  0  0  0
  2  5  1  0  0  0  0
  1  6  1  0  0  0  0
  6  7  1  0  0  0  0
  1  8  1  0  0  0  0
  1  9  1  0  0  0  0
M  END
>  <INPUT>
DTXSID4059966

>  <FOUND_BY>
DSSTox_Substance_Id

>  <DTXSID>
DTXSID4059966

>  <PREFERRED_NAME>
2:1 Fluorotelomer alcohol

>  <CASRN>
422-05-9

>  <INCHIKEY>
PSQZJKGXDGNDFP-UHFFFAOYSA-N

>  <IUPAC_NAME>
2,2,3,3,3-Pentafluoropropan-1-ol

>  <SMILES>
OCC(F)(F)C(F)(F)F

>  <INCHI_STRING>
InChI=1S/C3H3F5O/c4-2(5,1-9)3(6,7)8/h9H,1H2

>  <MOLECULAR_FORMULA>
C3H3F5O

>  <AVERAGE_MASS>
150.048

>  <MONOISOTOPIC_MASS>
150.010405532

>  <MOL_FILE>
MOL_FILE

$$$$

  -INDIGO-02112615072D

 12 11  0  0  0  0  0  0  0  0999 V2000
   -1.7573    3.2684    0.0000 C   0  0  0  0  0  0  0  0  0  0  0  0
   -1.7573    1.7284    0.0000 C   0  0  0  0  0  0  0  0  0  0  0  0
   -1.7573    0.1884    0.0000 C   0  0  0  0  0  0  0  0  0  0  0  0
   -1.7573   -1.3516    0.0000 C   0  0  0  0  0  0  0  0  0  0  0  0
   -0.4236   -2.1216    0.0000 O   0  0  0  0  0  0  0  0  0  0  0  0
   -3.0910   -2.1216    0.0000 O   0  0  0  0  0  0  0  0  0  0  0  0
   -3.0910    4.0384    0.0000 F   0  0  0  0  0  0  0  0  0  0  0  0
   -0.4236    4.0384    0.0000 F   0  0  0  0  0  0  0  0  0  0  0  0
   -3.2973    1.7284    0.0000 F   0  0  0  0  0  0  0  0  0  0  0  0
   -0.2173    1.7284    0.0000 F   0  0  0  0  0  0  0  0  0  0  0  0
   -0.2173    0.1884    0.0000 F   0  0  0  0  0  0  0  0  0  0  0  0
   -3.2973    0.1884    0.0000 F   0  0  0  0  0  0  0  0  0  0  0  0
  1  2  1  0  0  0  0
  2  3  1  0  0  0  0
  3  4  1  0  0  0  0
  5  4  1  0  0  0  0
  6  4  2  0  0  0  0
 11  3  1  0  0  0  0
 12  3  1  0  0  0  0
 10  2  1  0  0  0  0
  9  2  1  0  0  0  0
  7  1  1  0  0  0  0
  8  1  1  0  0  0  0
M  END
>  <INPUT>
DTXSID50892417

>  <FOUND_BY>
DSSTox_Substance_Id

>  <DTXSID>
DTXSID50892417

>  <PREFERRED_NAME>
4H-Perfluorobutanoic acid

>  <CASRN>
679-12-9

>  <INCHIKEY>
ACPUHIQZFSBBGQ-UHFFFAOYSA-N

>  <IUPAC_NAME>
2,2,3,3,4,4-Hexafluorobutanoic acid

>  <SMILES>
OC(=O)C(F)(F)C(F)(F)C(F)F

>  <INCHI_STRING>
InChI=1S/C4H2F6O2/c5-1(6)3(7,8)4(9,10)2(11)12/h1H,(H,11,12)

>  <MOLECULAR_FORMULA>
C4H2F6O2

>  <AVERAGE_MASS>
196.048

>  <MONOISOTOPIC_MASS>
195.995898282

>  <MOL_FILE>
MOL_FILE

$$$$

  -INDIGO-02112615072D

 27 26  0  0  0  0  0  0  0  0999 V2000
    9.8056   -1.6154    0.0000 F   0  0  0  0  0  0  0  0  0  0  0  0
   11.3456    1.0519    0.0000 F   0  0  0  0  0  0  0  0  0  0  0  0
   12.4729    1.0519    0.0000 F   0  0  0  0  0  0  0  0  0  0  0  0
   14.0129   -1.6154    0.0000 F   0  0  0  0  0  0  0  0  0  0  0  0
    8.4717   -0.8454    0.0000 F   0  0  0  0  0  0  0  0  0  0  0  0
   10.0117    1.8219    0.0000 F   0  0  0  0  0  0  0  0  0  0  0  0
   13.8066    1.8219    0.0000 F   0  0  0  0  0  0  0  0  0  0  0  0
   15.3466   -0.8454    0.0000 F   0  0  0  0  0  0  0  0  0  0  0  0
    5.8044    1.8219    0.0000 F   0  0  0  0  0  0  0  0  0  0  0  0
    7.3444   -0.8454    0.0000 F   0  0  0  0  0  0  0  0  0  0  0  0
   18.0141    1.8219    0.0000 F   0  0  0  0  0  0  0  0  0  0  0  0
   16.4741   -0.8454    0.0000 F   0  0  0  0  0  0  0  0  0  0  0  0
   11.9091   -1.0519    0.0000 O   0  0  0  0  0  0  0  0  0  0  0  0
   15.9103    1.2581    0.0000 O   0  0  0  0  0  0  0  0  0  0  0  0
    7.9081    1.2581    0.0000 O   0  0  0  0  0  0  0  0  0  0  0  0
    3.9069    0.4881    0.0000 O   0  0  0  0  0  0  0  0  0  0  0  0
   19.9114    0.4881    0.0000 O   0  0  0  0  0  0  0  0  0  0  0  0
    5.2407   -1.8219    0.0000 O   0  0  0  0  0  0  0  0  0  0  0  0
   18.5778   -1.8219    0.0000 O   0  0  0  0  0  0  0  0  0  0  0  0
   13.2429   -0.2819    0.0000 C   0  0  0  0  0  0  0  0  0  0  0  0
   10.5756   -0.2819    0.0000 C   0  0  0  0  0  0  0  0  0  0  0  0
   14.5766    0.4881    0.0000 C   0  0  0  0  0  0  0  0  0  0  0  0
    9.2417    0.4881    0.0000 C   0  0  0  0  0  0  0  0  0  0  0  0
    6.5744    0.4881    0.0000 C   0  0  0  0  0  0  0  0  0  0  0  0
   17.2441    0.4881    0.0000 C   0  0  0  0  0  0  0  0  0  0  0  0
    5.2407   -0.2819    0.0000 C   0  0  0  0  0  0  0  0  0  0  0  0
   18.5778   -0.2819    0.0000 C   0  0  0  0  0  0  0  0  0  0  0  0
  1 21  1  0  0  0  0
  2 21  1  0  0  0  0
  3 20  1  0  0  0  0
  4 20  1  0  0  0  0
  5 23  1  0  0  0  0
  6 23  1  0  0  0  0
  7 22  1  0  0  0  0
  8 22  1  0  0  0  0
  9 24  1  0  0  0  0
 10 24  1  0  0  0  0
 11 25  1  0  0  0  0
 12 25  1  0  0  0  0
 13 20  1  0  0  0  0
 13 21  1  0  0  0  0
 14 22  1  0  0  0  0
 14 25  1  0  0  0  0
 15 23  1  0  0  0  0
 15 24  1  0  0  0  0
 16 26  1  0  0  0  0
 17 27  1  0  0  0  0
 18 26  2  0  0  0  0
 19 27  2  0  0  0  0
 20 22  1  0  0  0  0
 21 23  1  0  0  0  0
 24 26  1  0  0  0  0
 25 27  1  0  0  0  0
M  END
>  <INPUT>
DTXSID60381084

>  <FOUND_BY>
DSSTox_Substance_Id

>  <DTXSID>
DTXSID60381084

>  <PREFERRED_NAME>
Perfluoro-3,6,9-trioxaundecane-1,11-dioic acid

>  <CASRN>
55621-18-6

>  <INCHIKEY>
QPFPCCRSQCFOIH-UHFFFAOYSA-N

>  <IUPAC_NAME>
2,2'-{Oxybis[(1,1,2,2-tetrafluoroethane-2,1-diyl)oxy]}bis(difluoroacetic acid)

>  <SMILES>
OC(=O)C(F)(F)OC(F)(F)C(F)(F)OC(F)(F)C(F)(F)OC(F)(F)C(O)=O

>  <INCHI_STRING>
InChI=1S/C8H2F12O7/c9-3(10,1(21)22)25-5(13,14)7(17,18)27-8(19,20)6(15,16)26-4(11,12)2(23)24/h(H,21,22)(H,23,24)

>  <MOLECULAR_FORMULA>
C8H2F12O7

>  <AVERAGE_MASS>
438.078

>  <MONOISOTOPIC_MASS>
437.96089036

>  <MOL_FILE>
MOL_FILE

$$$$

  -INDIGO-02112615072D

 26 25  0  0  0  0  0  0  0  0999 V2000
   11.6461    1.0519    0.0000 F   0  0  0  0  0  0  0  0  0  0  0  0
   13.1861   -1.6154    0.0000 F   0  0  0  0  0  0  0  0  0  0  0  0
    6.3112   -1.6154    0.0000 F   0  0  0  0  0  0  0  0  0  0  0  0
    7.8512    1.0519    0.0000 F   0  0  0  0  0  0  0  0  0  0  0  0
   12.9797    1.8219    0.0000 F   0  0  0  0  0  0  0  0  0  0  0  0
   14.5197   -0.8454    0.0000 F   0  0  0  0  0  0  0  0  0  0  0  0
    4.9775   -0.8454    0.0000 F   0  0  0  0  0  0  0  0  0  0  0  0
    6.5175    1.8219    0.0000 F   0  0  0  0  0  0  0  0  0  0  0  0
   16.4171    2.0281    0.0000 F   0  0  0  0  0  0  0  0  0  0  0  0
   15.8534   -0.0754    0.0000 F   0  0  0  0  0  0  0  0  0  0  0  0
   14.3134    2.5919    0.0000 F   0  0  0  0  0  0  0  0  0  0  0  0
    3.0800    2.0281    0.0000 F   0  0  0  0  0  0  0  0  0  0  0  0
    3.6437   -0.0754    0.0000 F   0  0  0  0  0  0  0  0  0  0  0  0
    5.1837    2.5919    0.0000 F   0  0  0  0  0  0  0  0  0  0  0  0
   11.0824   -2.5919    0.0000 O   0  0  0  0  0  0  0  0  0  0  0  0
    8.4149   -2.5919    0.0000 O   0  0  0  0  0  0  0  0  0  0  0  0
    9.7485   -0.2819    0.0000 N   0  0  0  0  0  0  0  0  0  0  0  0
   12.4161   -0.2819    0.0000 C   0  0  0  0  0  0  0  0  0  0  0  0
    7.0812   -0.2819    0.0000 C   0  0  0  0  0  0  0  0  0  0  0  0
   13.7497    0.4881    0.0000 C   0  0  0  0  0  0  0  0  0  0  0  0
    5.7475    0.4881    0.0000 C   0  0  0  0  0  0  0  0  0  0  0  0
   11.0824   -1.0519    0.0000 C   0  0  0  0  0  0  0  0  0  0  0  0
    8.4149   -1.0519    0.0000 C   0  0  0  0  0  0  0  0  0  0  0  0
   15.0834    1.2581    0.0000 C   0  0  0  0  0  0  0  0  0  0  0  0
    4.4137    1.2581    0.0000 C   0  0  0  0  0  0  0  0  0  0  0  0
    9.7485    1.2581    0.0000 C   0  0  0  0  0  0  0  0  0  0  0  0
  1 18  1  0  0  0  0
  2 18  1  0  0  0  0
  3 19  1  0  0  0  0
  4 19  1  0  0  0  0
  5 20  1  0  0  0  0
  6 20  1  0  0  0  0
  7 21  1  0  0  0  0
  8 21  1  0  0  0  0
  9 24  1  0  0  0  0
 10 24  1  0  0  0  0
 11 24  1  0  0  0  0
 12 25  1  0  0  0  0
 13 25  1  0  0  0  0
 14 25  1  0  0  0  0
 15 22  2  0  0  0  0
 16 23  2  0  0  0  0
 17 22  1  0  0  0  0
 17 23  1  0  0  0  0
 17 26  1  0  0  0  0
 18 20  1  0  0  0  0
 18 22  1  0  0  0  0
 19 21  1  0  0  0  0
 19 23  1  0  0  0  0
 20 24  1  0  0  0  0
 21 25  1  0  0  0  0
M  END
>  <INPUT>
DTXSID00344572

>  <FOUND_BY>
DSSTox_Substance_Id

>  <DTXSID>
DTXSID00344572

>  <PREFERRED_NAME>
N-Methyl-bis-heptafluorobutyramide

>  <CASRN>
73980-71-9

>  <INCHIKEY>
BCQYNSPESDDJBZ-UHFFFAOYSA-N

>  <IUPAC_NAME>
2,2,3,3,4,4,4-Heptafluoro-N-(2,2,3,3,4,4,4-heptafluorobutanoyl)-N-methylbutanamide

>  <SMILES>
CN(C(=O)C(F)(F)C(F)(F)C(F)(F)F)C(=O)C(F)(F)C(F)(F)C(F)(F)F

>  <INCHI_STRING>
InChI=1S/C9H3F14NO2/c1-24(2(25)4(10,11)6(14,15)8(18,19)20)3(26)5(12,13)7(16,17)9(21,22)23/h1H3

>  <MOLECULAR_FORMULA>
C9H3F14NO2

>  <AVERAGE_MASS>
423.106

>  <MONOISOTOPIC_MASS>
422.994022623

>  <MOL_FILE>
MOL_FILE

$$$$

  -INDIGO-02112615072D

 14 13  0  0  0  0  0  0  0  0999 V2000
    8.4149    0.3957    0.0000 F   0  0  0  0  0  0  0  0  0  0  0  0
    7.0812    1.1657    0.0000 F   0  0  0  0  0  0  0  0  0  0  0  0
    7.8512   -1.7078    0.0000 F   0  0  0  0  0  0  0  0  0  0  0  0
    3.0800   -2.6843    0.0000 F   0  0  0  0  0  0  0  0  0  0  0  0
    3.6437   -0.5805    0.0000 F   0  0  0  0  0  0  0  0  0  0  0  0
    4.4137   -3.4543    0.0000 F   0  0  0  0  0  0  0  0  0  0  0  0
    6.5175   -2.4780    0.0000 O   0  0  0  0  0  0  0  0  0  0  0  0
    3.6437    2.4995    0.0000 O   0  0  0  0  0  0  0  0  0  0  0  0
    6.3112    2.4995    0.0000 O   0  0  0  0  0  0  0  0  0  0  0  0
    5.7475   -1.1443    0.0000 C   0  0  0  0  0  0  0  0  0  0  0  0
    4.9775    0.1895    0.0000 C   0  0  0  0  0  0  0  0  0  0  0  0
    7.0812   -0.3743    0.0000 C   0  0  0  0  0  0  0  0  0  0  0  0
    4.4137   -1.9143    0.0000 C   0  0  0  0  0  0  0  0  0  0  0  0
    4.9775    1.7295    0.0000 C   0  0  0  0  0  0  0  0  0  0  0  0
  1 12  1  0  0  0  0
  2 12  1  0  0  0  0
  3 12  1  0  0  0  0
  4 13  1  0  0  0  0
  5 13  1  0  0  0  0
  6 13  1  0  0  0  0
  7 10  1  0  0  0  0
  8 14  1  0  0  0  0
  9 14  2  0  0  0  0
 10 11  1  0  0  0  0
 10 12  1  0  0  0  0
 10 13  1  0  0  0  0
 11 14  1  0  0  0  0
M  END
>  <INPUT>
DTXSID20165701

>  <FOUND_BY>
DSSTox_Substance_Id

>  <DTXSID>
DTXSID20165701

>  <PREFERRED_NAME>
3,3-Bis(trifluoromethyl)-3-hydroxypropionic acid

>  <CASRN>
1547-36-0

>  <INCHIKEY>
NOHJBOWARMTILE-UHFFFAOYSA-N

>  <IUPAC_NAME>
4,4,4-Trifluoro-3-hydroxy-3-(trifluoromethyl)butanoic acid

>  <SMILES>
OC(=O)CC(O)(C(F)(F)F)C(F)(F)F

>  <INCHI_STRING>
InChI=1S/C5H4F6O3/c6-4(7,8)3(14,1-2(12)13)5(9,10)11/h14H,1H2,(H,12,13)

>  <MOLECULAR_FORMULA>
C5H4F6O3

>  <AVERAGE_MASS>
226.074

>  <MONOISOTOPIC_MASS>
226.006462967

>  <MOL_FILE>
MOL_FILE

$$$$

  -INDIGO-02112615072D

 29 28  0  0  0  0  0  0  0  0999 V2000
   -4.6057   -0.0454    0.0000 C   0  0  0  0  0  0  0  0  0  0  0  0
   -3.0657   -0.0315    0.0000 C   0  0  0  0  0  0  0  0  0  0  0  0
   -1.5257   -0.0176    0.0000 C   0  0  0  0  0  0  0  0  0  0  0  0
    0.0000    0.0000    0.0000 C   0  0  0  0  0  0  0  0  0  0  0  0
    1.5308    0.0090    0.0000 C   0  0  0  0  0  0  0  0  0  0  0  0
    3.0657    0.0315    0.0000 C   0  0  0  0  0  0  0  0  0  0  0  0
    4.6057    0.0454    0.0000 C   0  0  0  0  0  0  0  0  0  0  0  0
    6.1457    0.0593    0.0000 C   0  0  0  0  0  0  0  0  0  0  0  0
   -6.1457   -0.0592    0.0000 S   0  0  0  0  0  0  0  0  0  0  0  0
   -6.1371   -1.5903    0.0000 O   0  0  0  0  0  0  0  0  0  0  0  0
   -6.1596    1.4808    0.0000 O   0  0  0  0  0  0  0  0  0  0  0  0
   -7.6853   -0.0728    0.0000 N   0  0  0  0  0  0  0  0  0  0  0  0
   -4.6196    1.4947    0.0000 F   0  0  0  0  0  0  0  0  0  0  0  0
   -4.5971   -1.5763    0.0000 F   0  0  0  0  0  0  0  0  0  0  0  0
   -3.0796    1.5086    0.0000 F   0  0  0  0  0  0  0  0  0  0  0  0
   -3.0572   -1.5625    0.0000 F   0  0  0  0  0  0  0  0  0  0  0  0
   -1.5396    1.5225    0.0000 F   0  0  0  0  0  0  0  0  0  0  0  0
   -1.5225   -1.5396    0.0000 F   0  0  0  0  0  0  0  0  0  0  0  0
    0.0176   -1.5257    0.0000 F   0  0  0  0  0  0  0  0  0  0  0  0
   -0.0176    1.5258    0.0000 F   0  0  0  0  0  0  0  0  0  0  0  0
    1.5396   -1.5223    0.0000 F   0  0  0  0  0  0  0  0  0  0  0  0
    1.5225    1.5397    0.0000 F   0  0  0  0  0  0  0  0  0  0  0  0
    3.0796   -1.5086    0.0000 F   0  0  0  0  0  0  0  0  0  0  0  0
    3.0571    1.5625    0.0000 F   0  0  0  0  0  0  0  0  0  0  0  0
    4.6196   -1.4947    0.0000 F   0  0  0  0  0  0  0  0  0  0  0  0
    4.5971    1.5764    0.0000 F   0  0  0  0  0  0  0  0  0  0  0  0
    6.1371    1.5903    0.0000 F   0  0  0  0  0  0  0  0  0  0  0  0
    6.1596   -1.4808    0.0000 F   0  0  0  0  0  0  0  0  0  0  0  0
    7.6853    0.0729    0.0000 F   0  0  0  0  0  0  0  0  0  0  0  0
  1  2  1  0  0  0  0
  1  9  1  0  0  0  0
  1 13  1  0  0  0  0
  1 14  1  0  0  0  0
  2  3  1  0  0  0  0
  2 15  1  0  0  0  0
  2 16  1  0  0  0  0
  3  4  1  0  0  0  0
  3 17  1  0  0  0  0
  3 18  1  0  0  0  0
  4  5  1  0  0  0  0
  4 19  1  0  0  0  0
  4 20  1  0  0  0  0
  5  6  1  0  0  0  0
  5 21  1  0  0  0  0
  5 22  1  0  0  0  0
  6  7  1  0  0  0  0
  6 23  1  0  0  0  0
  6 24  1  0  0  0  0
  7  8  1  0  0  0  0
  7 25  1  0  0  0  0
  7 26  1  0  0  0  0
  8 27  1  0  0  0  0
  8 28  1  0  0  0  0
  8 29  1  0  0  0  0
  9 10  2  0  0  0  0
  9 12  1  0  0  0  0
  9 11  2  0  0  0  0
M  END
>  <INPUT>
DTXSID3038939

>  <FOUND_BY>
DSSTox_Substance_Id

>  <DTXSID>
DTXSID3038939

>  <PREFERRED_NAME>
Perfluorooctanesulfonamide

>  <CASRN>
754-91-6

>  <INCHIKEY>
RRRXPPIDPYTNJG-UHFFFAOYSA-N

>  <IUPAC_NAME>
1,1,2,2,3,3,4,4,5,5,6,6,7,7,8,8,8-Heptadecafluorooctane-1-sulfonamide

>  <SMILES>
NS(=O)(=O)C(F)(F)C(F)(F)C(F)(F)C(F)(F)C(F)(F)C(F)(F)C(F)(F)C(F)(F)F

>  <INCHI_STRING>
InChI=1S/C8H2F17NO2S/c9-1(10,3(13,14)5(17,18)7(21,22)23)2(11,12)4(15,16)6(19,20)8(24,25)29(26,27)28/h(H2,26,27,28)


>  <MOLECULAR_FORMULA>
C8H2F17NO2S

>  <AVERAGE_MASS>
499.14

>  <MONOISOTOPIC_MASS>
498.953478253

>  <MOL_FILE>
MOL_FILE

$$$$

  -INDIGO-02112615072D

 19 18  0  0  0  0  0  0  0  0999 V2000
    1.5400    0.0000    0.0000 C   0  0  0  0  0  0  0  0  0  0  0  0
    1.5400   -1.5400    0.0000 C   0  0  0  0  0  0  0  0  0  0  0  0
    1.5400   -3.0800    0.0000 C   0  0  0  0  0  0  0  0  0  0  0  0
    1.5400   -4.6200    0.0000 F   0  0  0  0  0  0  0  0  0  0  0  0
    3.0800   -3.0800    0.0000 F   0  0  0  0  0  0  0  0  0  0  0  0
    0.0000   -3.0800    0.0000 F   0  0  0  0  0  0  0  0  0  0  0  0
    3.0800   -1.5400    0.0000 F   0  0  0  0  0  0  0  0  0  0  0  0
    0.0000   -1.5400    0.0000 F   0  0  0  0  0  0  0  0  0  0  0  0
    1.5400    1.5400    0.0000 C   0  0  0  0  0  0  0  0  0  0  0  0
    0.2063    2.3100    0.0000 C   0  0  0  0  0  0  0  0  0  0  0  0
    0.2063    3.8500    0.0000 C   0  0  0  0  0  0  0  0  0  0  0  0
   -1.1273    4.6200    0.0000 C   0  0  0  0  0  0  0  0  0  0  0  0
   -2.4610    5.3900    0.0000 C   0  0  0  0  0  0  0  0  0  0  0  0
   -0.3573    5.9537    0.0000 C   0  0  0  0  0  0  0  0  0  0  0  0
   -1.8973    3.2863    0.0000 C   0  0  0  0  0  0  0  0  0  0  0  0
    1.5400    4.6200    0.0000 O   0  0  0  0  0  0  0  0  0  0  0  0
    2.8737    2.3100    0.0000 O   0  0  0  0  0  0  0  0  0  0  0  0
    3.0800    0.0000    0.0000 F   0  0  0  0  0  0  0  0  0  0  0  0
    0.0000    0.0000    0.0000 F   0  0  0  0  0  0  0  0  0  0  0  0
  1  2  1  0  0  0  0
  2  3  1  0  0  0  0
  3  4  1  0  0  0  0
  3  5  1  0  0  0  0
  3  6  1  0  0  0  0
  2  7  1  0  0  0  0
  2  8  1  0  0  0  0
  1  9  1  0  0  0  0
  9 10  1  0  0  0  0
 10 11  1  0  0  0  0
 11 12  1  0  0  0  0
 12 13  1  0  0  0  0
 12 14  1  0  0  0  0
 12 15  1  0  0  0  0
 11 16  2  0  0  0  0
  9 17  2  0  0  0  0
  1 18  1  0  0  0  0
  1 19  1  0  0  0  0
M  END
>  <INPUT>
DTXSID3066215

>  <FOUND_BY>
DSSTox_Substance_Id

>  <DTXSID>
DTXSID3066215

>  <PREFERRED_NAME>
(Heptafluorobutanoyl)pivaloylmethane

>  <CASRN>
17587-22-3

>  <INCHIKEY>
SQNZLBOJCWQLGQ-UHFFFAOYSA-N

>  <IUPAC_NAME>
6,6,7,7,8,8,8-Heptafluoro-2,2-dimethyloctane-3,5-dione

>  <SMILES>
CC(C)(C)C(=O)CC(=O)C(F)(F)C(F)(F)C(F)(F)F

>  <INCHI_STRING>
InChI=1S/C10H11F7O2/c1-7(2,3)5(18)4-6(19)8(11,12)9(13,14)10(15,16)17/h4H2,1-3H3

>  <MOLECULAR_FORMULA>
C10H11F7O2

>  <AVERAGE_MASS>
296.185

>  <MONOISOTOPIC_MASS>
296.064726735

>  <MOL_FILE>
MOL_FILE

$$$$

  -INDIGO-02112615072D

 14 13  0  0  0  0  0  0  0  0999 V2000
    1.5400    0.0000    0.0000 C   0  0  0  0  0  0  0  0  0  0  0  0
    1.5400   -1.5400    0.0000 C   0  0  0  0  0  0  0  0  0  0  0  0
    1.5400   -3.0800    0.0000 F   0  0  0  0  0  0  0  0  0  0  0  0
    3.0800   -1.5400    0.0000 F   0  0  0  0  0  0  0  0  0  0  0  0
    0.0000   -1.5400    0.0000 F   0  0  0  0  0  0  0  0  0  0  0  0
    1.5400    1.5400    0.0000 C   0  0  0  0  0  0  0  0  0  0  0  0
    1.5400    3.0800    0.0000 F   0  0  0  0  0  0  0  0  0  0  0  0
    3.0800    1.5400    0.0000 F   0  0  0  0  0  0  0  0  0  0  0  0
    0.0000    1.5400    0.0000 F   0  0  0  0  0  0  0  0  0  0  0  0
    3.0800    0.0000    0.0000 C   0  0  0  0  0  0  0  0  0  0  0  0
    4.6200    0.0000    0.0000 F   0  0  0  0  0  0  0  0  0  0  0  0
    3.9851    1.2458    0.0000 F   0  0  0  0  0  0  0  0  0  0  0  0
    3.9851   -1.2458    0.0000 F   0  0  0  0  0  0  0  0  0  0  0  0
    0.0000    0.0000    0.0000 O   0  0  0  0  0  0  0  0  0  0  0  0
  1  2  1  0  0  0  0
  2  3  1  0  0  0  0
  2  4  1  0  0  0  0
  2  5  1  0  0  0  0
  1  6  1  0  0  0  0
  6  7  1  0  0  0  0
  6  8  1  0  0  0  0
  6  9  1  0  0  0  0
  1 10  1  0  0  0  0
 10 11  1  0  0  0  0
 10 12  1  0  0  0  0
 10 13  1  0  0  0  0
  1 14  1  0  0  0  0
M  END
>  <INPUT>
DTXSID5073292

>  <FOUND_BY>
DSSTox_Substance_Id

>  <DTXSID>
DTXSID5073292

>  <PREFERRED_NAME>
Nonafluoro-tert-butanol

>  <CASRN>
2378-02-1

>  <INCHIKEY>
XZNOAVNRSFURIR-UHFFFAOYSA-N

>  <IUPAC_NAME>
1,1,1,3,3,3-Hexafluoro-2-(trifluoromethyl)propan-2-ol

>  <SMILES>
OC(C(F)(F)F)(C(F)(F)F)C(F)(F)F

>  <INCHI_STRING>
InChI=1S/C4HF9O/c5-2(6,7)1(14,3(8,9)10)4(11,12)13/h14H

>  <MOLECULAR_FORMULA>
C4HF9O

>  <AVERAGE_MASS>
236.037

>  <MONOISOTOPIC_MASS>
235.988368119

>  <MOL_FILE>
MOL_FILE

$$$$

  -INDIGO-02112615072D

 26 25  0  0  0  0  0  0  0  0999 V2000
   12.4729   -0.5914    0.0000 F   0  0  0  0  0  0  0  0  0  0  0  0
   14.0129   -3.2586    0.0000 F   0  0  0  0  0  0  0  0  0  0  0  0
   13.8066    0.1786    0.0000 F   0  0  0  0  0  0  0  0  0  0  0  0
   15.3466   -2.4886    0.0000 F   0  0  0  0  0  0  0  0  0  0  0  0
   15.1403    0.9486    0.0000 F   0  0  0  0  0  0  0  0  0  0  0  0
   16.6803   -1.7186    0.0000 F   0  0  0  0  0  0  0  0  0  0  0  0
   16.4741    1.7186    0.0000 F   0  0  0  0  0  0  0  0  0  0  0  0
   18.0141   -0.9486    0.0000 F   0  0  0  0  0  0  0  0  0  0  0  0
   19.3478   -0.1786    0.0000 F   0  0  0  0  0  0  0  0  0  0  0  0
   17.8076    2.4886    0.0000 F   0  0  0  0  0  0  0  0  0  0  0  0
   21.2453    2.6951    0.0000 F   0  0  0  0  0  0  0  0  0  0  0  0
   20.6814    0.5914    0.0000 F   0  0  0  0  0  0  0  0  0  0  0  0
   19.1414    3.2586    0.0000 F   0  0  0  0  0  0  0  0  0  0  0  0
    3.9069   -2.6951    0.0000 O   0  0  0  0  0  0  0  0  0  0  0  0
   13.2429   -1.9251    0.0000 C   0  0  0  0  0  0  0  0  0  0  0  0
   14.5766   -1.1551    0.0000 C   0  0  0  0  0  0  0  0  0  0  0  0
   11.9091   -2.6951    0.0000 C   0  0  0  0  0  0  0  0  0  0  0  0
   15.9103   -0.3851    0.0000 C   0  0  0  0  0  0  0  0  0  0  0  0
   10.5756   -1.9251    0.0000 C   0  0  0  0  0  0  0  0  0  0  0  0
   17.2441    0.3851    0.0000 C   0  0  0  0  0  0  0  0  0  0  0  0
    9.2417   -2.6951    0.0000 C   0  0  0  0  0  0  0  0  0  0  0  0
   18.5778    1.1551    0.0000 C   0  0  0  0  0  0  0  0  0  0  0  0
    7.9081   -1.9251    0.0000 C   0  0  0  0  0  0  0  0  0  0  0  0
    6.5744   -2.6951    0.0000 C   0  0  0  0  0  0  0  0  0  0  0  0
   19.9114    1.9251    0.0000 C   0  0  0  0  0  0  0  0  0  0  0  0
    5.2407   -1.9251    0.0000 C   0  0  0  0  0  0  0  0  0  0  0  0
  1 15  1  0  0  0  0
  2 15  1  0  0  0  0
  3 16  1  0  0  0  0
  4 16  1  0  0  0  0
  5 18  1  0  0  0  0
  6 18  1  0  0  0  0
  7 20  1  0  0  0  0
  8 20  1  0  0  0  0
  9 22  1  0  0  0  0
 10 22  1  0  0  0  0
 11 25  1  0  0  0  0
 12 25  1  0  0  0  0
 13 25  1  0  0  0  0
 14 26  1  0  0  0  0
 15 16  1  0  0  0  0
 15 17  1  0  0  0  0
 16 18  1  0  0  0  0
 17 19  1  0  0  0  0
 18 20  1  0  0  0  0
 19 21  1  0  0  0  0
 20 22  1  0  0  0  0
 21 23  1  0  0  0  0
 22 25  1  0  0  0  0
 23 24  1  0  0  0  0
 24 26  1  0  0  0  0
M  END
>  <INPUT>
DTXSID50379859

>  <FOUND_BY>
DSSTox_Substance_Id

>  <DTXSID>
DTXSID50379859

>  <PREFERRED_NAME>
6-(Perfluorohexyl)hexanol

>  <CASRN>
161981-35-7

>  <INCHIKEY>
PYOIUKBYPXQLLT-UHFFFAOYSA-N

>  <IUPAC_NAME>
7,7,8,8,9,9,10,10,11,11,12,12,12-Tridecafluorododecan-1-ol

>  <SMILES>
OCCCCCCC(F)(F)C(F)(F)C(F)(F)C(F)(F)C(F)(F)C(F)(F)F

>  <INCHI_STRING>
InChI=1S/C12H13F13O/c13-7(14,5-3-1-2-4-6-26)8(15,16)9(17,18)10(19,20)11(21,22)12(23,24)25/h26H,1-6H2

>  <MOLECULAR_FORMULA>
C12H13F13O

>  <AVERAGE_MASS>
420.214

>  <MONOISOTOPIC_MASS>
420.075881158

>  <MOL_FILE>
MOL_FILE

$$$$

  -INDIGO-02112615072D

 23 22  0  0  0  0  0  0  0  0999 V2000
    1.5400  -10.7800    0.0000 F   0  0  0  0  0  0  0  0  0  0  0  0
    1.5400   -9.2400    0.0000 C   0  0  0  0  0  0  0  0  0  0  0  0
    3.0800   -9.2400    0.0000 F   0  0  0  0  0  0  0  0  0  0  0  0
    0.0000   -9.2400    0.0000 F   0  0  0  0  0  0  0  0  0  0  0  0
    1.5400   -7.7000    0.0000 C   0  0  0  0  0  0  0  0  0  0  0  0
    3.0800   -7.7000    0.0000 F   0  0  0  0  0  0  0  0  0  0  0  0
    0.0000   -7.7000    0.0000 F   0  0  0  0  0  0  0  0  0  0  0  0
    1.5400   -6.1600    0.0000 C   0  0  0  0  0  0  0  0  0  0  0  0
    3.0800   -6.1600    0.0000 F   0  0  0  0  0  0  0  0  0  0  0  0
    0.0000   -6.1600    0.0000 F   0  0  0  0  0  0  0  0  0  0  0  0
    1.5400   -4.6200    0.0000 C   0  0  0  0  0  0  0  0  0  0  0  0
    3.0800   -4.6200    0.0000 F   0  0  0  0  0  0  0  0  0  0  0  0
    0.0000   -4.6200    0.0000 F   0  0  0  0  0  0  0  0  0  0  0  0
    1.5400   -3.0800    0.0000 C   0  0  0  0  0  0  0  0  0  0  0  0
    3.0800   -3.0800    0.0000 F   0  0  0  0  0  0  0  0  0  0  0  0
    0.0000   -3.0800    0.0000 F   0  0  0  0  0  0  0  0  0  0  0  0
    1.5400   -1.5400    0.0000 C   0  0  0  0  0  0  0  0  0  0  0  0
    3.0800   -1.5400    0.0000 F   0  0  0  0  0  0  0  0  0  0  0  0
    0.0000   -1.5400    0.0000 F   0  0  0  0  0  0  0  0  0  0  0  0
    1.5400    0.0000    0.0000 C   0  0  0  0  0  0  0  0  0  0  0  0
    1.5400    1.5400    0.0000 F   0  0  0  0  0  0  0  0  0  0  0  0
    3.0800    0.0000    0.0000 F   0  0  0  0  0  0  0  0  0  0  0  0
    0.0000    0.0000    0.0000 I   0  0  0  0  0  0  0  0  0  0  0  0
  1  2  1  0  0  0  0
  2  3  1  0  0  0  0
  2  4  1  0  0  0  0
  2  5  1  0  0  0  0
  5  6  1  0  0  0  0
  5  7  1  0  0  0  0
  5  8  1  0  0  0  0
  8  9  1  0  0  0  0
  8 10  1  0  0  0  0
  8 11  1  0  0  0  0
 11 12  1  0  0  0  0
 11 13  1  0  0  0  0
 11 14  1  0  0  0  0
 14 15  1  0  0  0  0
 14 16  1  0  0  0  0
 14 17  1  0  0  0  0
 17 18  1  0  0  0  0
 17 19  1  0  0  0  0
 17 20  1  0  0  0  0
 20 21  1  0  0  0  0
 20 22  1  0  0  0  0
 20 23  1  0  0  0  0
M  END
>  <INPUT>
DTXSID5059828

>  <FOUND_BY>
DSSTox_Substance_Id

>  <DTXSID>
DTXSID5059828

>  <PREFERRED_NAME>
1-Iodopentadecafluoroheptane

>  <CASRN>
335-58-0

>  <INCHIKEY>
AHUMDLIBMIYQMU-UHFFFAOYSA-N

>  <IUPAC_NAME>
1,1,1,2,2,3,3,4,4,5,5,6,6,7,7-Pentadecafluoro-7-iodoheptane

>  <SMILES>
FC(F)(F)C(F)(F)C(F)(F)C(F)(F)C(F)(F)C(F)(F)C(F)(F)I

>  <INCHI_STRING>
InChI=1S/C7F15I/c8-1(9,2(10,11)4(14,15)6(18,19)20)3(12,13)5(16,17)7(21,22)23

>  <MOLECULAR_FORMULA>
C7F15I

>  <AVERAGE_MASS>
495.958

>  <MONOISOTOPIC_MASS>
495.88052

>  <MOL_FILE>
MOL_FILE

$$$$

  -INDIGO-02112615072D

 26 25  0  0  0  0  0  0  0  0999 V2000
   -2.5947    0.9611    0.0000 C   0  0  0  0  0  0  0  0  0  0  0  0
   -2.6049   -0.5789    0.0000 C   0  0  0  0  0  0  0  0  0  0  0  0
   -1.0437    0.9508    0.0000 O   0  0  0  0  0  0  0  0  0  0  0  0
   -2.5844    2.5120    0.0000 C   0  0  0  0  0  0  0  0  0  0  0  0
   -4.1452    0.9611    0.0000 F   0  0  0  0  0  0  0  0  0  0  0  0
   -2.6153   -2.1294    0.0000 O   0  0  0  0  0  0  0  0  0  0  0  0
   -4.1555   -0.5789    0.0000 F   0  0  0  0  0  0  0  0  0  0  0  0
   -1.0545   -0.5891    0.0000 F   0  0  0  0  0  0  0  0  0  0  0  0
   -0.0412    2.1294    0.0000 C   0  0  0  0  0  0  0  0  0  0  0  0
   -1.0335    2.5017    0.0000 F   0  0  0  0  0  0  0  0  0  0  0  0
   -4.1350    2.5120    0.0000 F   0  0  0  0  0  0  0  0  0  0  0  0
   -2.5844    4.0625    0.0000 F   0  0  0  0  0  0  0  0  0  0  0  0
   -3.9592   -2.9049    0.0000 C   0  0  0  0  0  0  0  0  0  0  0  0
    1.2816    2.9049    0.0000 C   0  0  0  0  0  0  0  0  0  0  0  0
    0.7233    0.7854    0.0000 F   0  0  0  0  0  0  0  0  0  0  0  0
   -0.8166    3.4734    0.0000 F   0  0  0  0  0  0  0  0  0  0  0  0
   -3.9695   -4.4554    0.0000 C   0  0  0  0  0  0  0  0  0  0  0  0
   -5.3029   -2.1191    0.0000 F   0  0  0  0  0  0  0  0  0  0  0  0
    2.6256    3.6800    0.0000 C   0  0  0  0  0  0  0  0  0  0  0  0
    2.0570    1.5608    0.0000 F   0  0  0  0  0  0  0  0  0  0  0  0
    0.5065    4.2485    0.0000 F   0  0  0  0  0  0  0  0  0  0  0  0
   -2.6256   -5.2305    0.0000 F   0  0  0  0  0  0  0  0  0  0  0  0
   -5.3136   -5.2202    0.0000 F   0  0  0  0  0  0  0  0  0  0  0  0
    3.9696    2.9049    0.0000 O   0  0  0  0  0  0  0  0  0  0  0  0
    2.6256    5.2305    0.0000 O   0  0  0  0  0  0  0  0  0  0  0  0
    5.3136    3.6800    0.0000 C   0  0  0  0  0  0  0  0  0  0  0  0
  1  2  1  0  0  0  0
  1  3  1  0  0  0  0
  1  4  1  0  0  0  0
  1  5  1  0  0  0  0
  2  6  1  0  0  0  0
  2  7  1  0  0  0  0
  2  8  1  0  0  0  0
  3  9  1  0  0  0  0
  4 10  1  0  0  0  0
  4 11  1  0  0  0  0
  4 12  1  0  0  0  0
  6 13  1  0  0  0  0
  9 14  1  0  0  0  0
  9 15  1  0  0  0  0
  9 16  1  0  0  0  0
 13 17  2  0  0  0  0
 13 18  1  0  0  0  0
 14 19  1  0  0  0  0
 14 20  1  0  0  0  0
 14 21  1  0  0  0  0
 17 22  1  0  0  0  0
 17 23  1  0  0  0  0
 19 24  1  0  0  0  0
 19 25  2  0  0  0  0
 24 26  1  0  0  0  0
M  END
>  <INPUT>
DTXSID8044969

>  <FOUND_BY>
DSSTox_Substance_Id

>  <DTXSID>
DTXSID8044969

>  <PREFERRED_NAME>
Methyl perfluoro(3-(1-ethenyloxypropan-2-yloxy)propanoate)

>  <CASRN>
63863-43-4

>  <INCHIKEY>
OVAULROCPRKKJF-UHFFFAOYNA-N

>  <IUPAC_NAME>
Methyl 2,2,3,3-tetrafluoro-3-({1,1,1,2,3,3-hexafluoro-3-[(trifluoroethenyl)oxy]propan-2-yl}oxy)propanoate

>  <SMILES>
COC(=O)C(F)(F)C(F)(F)OC(F)(C(F)(F)F)C(F)(F)OC(F)=C(F)F

>  <INCHI_STRING>
InChI=1/C9H3F13O4/c1-24-4(23)5(13,14)8(19,20)26-6(15,7(16,17)18)9(21,22)25-3(12)2(10)11/h1H3


>  <MOLECULAR_FORMULA>
C9H3F13O4

>  <AVERAGE_MASS>
422.098

>  <MONOISOTOPIC_MASS>
421.982374696

>  <MOL_FILE>
MOL_FILE

$$$$

  -INDIGO-02112615072D

 12 11  0  0  0  0  0  0  0  0999 V2000
    8.9785    1.3337    0.0000 F   0  0  0  0  0  0  0  0  0  0  0  0
   10.5187   -1.3337    0.0000 F   0  0  0  0  0  0  0  0  0  0  0  0
   12.4161    0.0000    0.0000 F   0  0  0  0  0  0  0  0  0  0  0  0
   11.0824    2.3100    0.0000 F   0  0  0  0  0  0  0  0  0  0  0  0
    7.0812    0.0000    0.0000 O   0  0  0  0  0  0  0  0  0  0  0  0
    5.7475   -2.3100    0.0000 O   0  0  0  0  0  0  0  0  0  0  0  0
    9.7485    0.0000    0.0000 C   0  0  0  0  0  0  0  0  0  0  0  0
    8.4149   -0.7700    0.0000 C   0  0  0  0  0  0  0  0  0  0  0  0
   11.0824    0.7700    0.0000 C   0  0  0  0  0  0  0  0  0  0  0  0
    5.7475   -0.7700    0.0000 C   0  0  0  0  0  0  0  0  0  0  0  0
    4.4137    0.0000    0.0000 C   0  0  0  0  0  0  0  0  0  0  0  0
    3.0800   -0.7700    0.0000 C   0  0  0  0  0  0  0  0  0  0  0  0
  1  7  1  0  0  0  0
  2  7  1  0  0  0  0
  3  9  1  0  0  0  0
  4  9  1  0  0  0  0
  5  8  1  0  0  0  0
  5 10  1  0  0  0  0
  6 10  2  0  0  0  0
  7  8  1  0  0  0  0
  7  9  1  0  0  0  0
 10 11  1  0  0  0  0
 11 12  2  0  0  0  0
M  END
>  <INPUT>
DTXSID10224331

>  <FOUND_BY>
DSSTox_Substance_Id

>  <DTXSID>
DTXSID10224331

>  <PREFERRED_NAME>
2,2,3,3-Tetrafluoropropyl acrylate

>  <CASRN>
7383-71-3

>  <INCHIKEY>
VHJHZYSXJKREEE-UHFFFAOYSA-N

>  <IUPAC_NAME>
2,2,3,3-Tetrafluoropropyl prop-2-enoate

>  <SMILES>
FC(F)C(F)(F)COC(=O)C=C

>  <INCHI_STRING>
InChI=1S/C6H6F4O2/c1-2-4(11)12-3-6(9,10)5(7)8/h2,5H,1,3H2

>  <MOLECULAR_FORMULA>
C6H6F4O2

>  <AVERAGE_MASS>
186.106

>  <MONOISOTOPIC_MASS>
186.030392085

>  <MOL_FILE>
MOL_FILE

$$$$

  -INDIGO-02112615072D

 22 21  0  0  0  0  0  0  0  0999 V2000
   -5.0049    1.3337    0.0000 C   0  0  0  0  0  0  0  0  0  0  0  0
   -4.2349    0.0000    0.0000 C   0  0  0  0  0  0  0  0  0  0  0  0
   -2.6949    0.0000    0.0000 C   0  0  0  0  0  0  0  0  0  0  0  0
   -1.1549    0.0000    0.0000 C   0  0  0  0  0  0  0  0  0  0  0  0
    0.3851    0.0000    0.0000 C   0  0  0  0  0  0  0  0  0  0  0  0
    1.9251    0.0000    0.0000 C   0  0  0  0  0  0  0  0  0  0  0  0
    3.4649    0.0000    0.0000 C   0  0  0  0  0  0  0  0  0  0  0  0
    5.0049    0.0000    0.0000 C   0  0  0  0  0  0  0  0  0  0  0  0
   -6.5449    1.3337    0.0000 O   0  0  0  0  0  0  0  0  0  0  0  0
   -2.6949   -1.5400    0.0000 F   0  0  0  0  0  0  0  0  0  0  0  0
   -2.6949    1.5400    0.0000 F   0  0  0  0  0  0  0  0  0  0  0  0
   -1.1549   -1.5400    0.0000 F   0  0  0  0  0  0  0  0  0  0  0  0
   -1.1549    1.5400    0.0000 F   0  0  0  0  0  0  0  0  0  0  0  0
    0.3851   -1.5400    0.0000 F   0  0  0  0  0  0  0  0  0  0  0  0
    0.3851    1.5400    0.0000 F   0  0  0  0  0  0  0  0  0  0  0  0
    1.9251   -1.5400    0.0000 F   0  0  0  0  0  0  0  0  0  0  0  0
    1.9251    1.5400    0.0000 F   0  0  0  0  0  0  0  0  0  0  0  0
    3.4649   -1.5400    0.0000 F   0  0  0  0  0  0  0  0  0  0  0  0
    3.4649    1.5400    0.0000 F   0  0  0  0  0  0  0  0  0  0  0  0
    6.5449    0.0000    0.0000 F   0  0  0  0  0  0  0  0  0  0  0  0
    5.0049   -1.5400    0.0000 F   0  0  0  0  0  0  0  0  0  0  0  0
    5.0049    1.5400    0.0000 F   0  0  0  0  0  0  0  0  0  0  0  0
  1  2  1  0  0  0  0
  1  9  1  0  0  0  0
  2  3  1  0  0  0  0
  3  4  1  0  0  0  0
  3 10  1  0  0  0  0
  3 11  1  0  0  0  0
  4  5  1  0  0  0  0
  4 12  1  0  0  0  0
  4 13  1  0  0  0  0
  5  6  1  0  0  0  0
  5 14  1  0  0  0  0
  5 15  1  0  0  0  0
  6  7  1  0  0  0  0
  6 16  1  0  0  0  0
  6 17  1  0  0  0  0
  7  8  1  0  0  0  0
  7 18  1  0  0  0  0
  7 19  1  0  0  0  0
  8 20  1  0  0  0  0
  8 21  1  0  0  0  0
  8 22  1  0  0  0  0
M  END
>  <INPUT>
DTXSID5044572

>  <FOUND_BY>
DSSTox_Substance_Id

>  <DTXSID>
DTXSID5044572

>  <PREFERRED_NAME>
Fluorotelomer alcohol 6:2

>  <CASRN>
647-42-7

>  <INCHIKEY>
GRJRKPMIRMSBNK-UHFFFAOYSA-N

>  <IUPAC_NAME>
3,3,4,4,5,5,6,6,7,7,8,8,8-Tridecafluorooctan-1-ol

>  <SMILES>
OCCC(F)(F)C(F)(F)C(F)(F)C(F)(F)C(F)(F)C(F)(F)F

>  <INCHI_STRING>
InChI=1S/C8H5F13O/c9-3(10,1-2-22)4(11,12)5(13,14)6(15,16)7(17,18)8(19,20)21/h22H,1-2H2


>  <MOLECULAR_FORMULA>
C8H5F13O

>  <AVERAGE_MASS>
364.106

>  <MONOISOTOPIC_MASS>
364.0132809

>  <MOL_FILE>
MOL_FILE

$$$$

  -INDIGO-02112615072D

 28 27  0  0  0  0  0  0  0  0999 V2000
   18.2460    0.2132    0.0000 Cl  0  0  0  0  0  0  0  0  0  0  0  0
   10.5460    1.7532    0.0000 F   0  0  0  0  0  0  0  0  0  0  0  0
   10.5460   -1.3268    0.0000 F   0  0  0  0  0  0  0  0  0  0  0  0
   12.0860    1.7532    0.0000 F   0  0  0  0  0  0  0  0  0  0  0  0
   12.0860   -1.3268    0.0000 F   0  0  0  0  0  0  0  0  0  0  0  0
    9.0060    1.7532    0.0000 F   0  0  0  0  0  0  0  0  0  0  0  0
    9.0060   -1.3268    0.0000 F   0  0  0  0  0  0  0  0  0  0  0  0
   13.6260    1.7532    0.0000 F   0  0  0  0  0  0  0  0  0  0  0  0
   13.6260   -1.3268    0.0000 F   0  0  0  0  0  0  0  0  0  0  0  0
    7.4660    1.7532    0.0000 F   0  0  0  0  0  0  0  0  0  0  0  0
    7.4660   -1.3268    0.0000 F   0  0  0  0  0  0  0  0  0  0  0  0
   15.1660    1.7532    0.0000 F   0  0  0  0  0  0  0  0  0  0  0  0
   15.1660   -1.3268    0.0000 F   0  0  0  0  0  0  0  0  0  0  0  0
    5.9260    1.7532    0.0000 F   0  0  0  0  0  0  0  0  0  0  0  0
    5.9260   -1.3268    0.0000 F   0  0  0  0  0  0  0  0  0  0  0  0
   16.7060    1.7532    0.0000 F   0  0  0  0  0  0  0  0  0  0  0  0
   16.7060   -1.3268    0.0000 F   0  0  0  0  0  0  0  0  0  0  0  0
    3.6160   -1.1205    0.0000 O   0  0  0  0  0  0  0  0  0  0  0  0
    3.6160    1.5469    0.0000 O   0  0  0  0  0  0  0  0  0  0  0  0
   10.5460    0.2132    0.0000 C   0  0  0  0  0  0  0  0  0  0  0  0
   12.0860    0.2132    0.0000 C   0  0  0  0  0  0  0  0  0  0  0  0
    9.0060    0.2132    0.0000 C   0  0  0  0  0  0  0  0  0  0  0  0
   13.6260    0.2132    0.0000 C   0  0  0  0  0  0  0  0  0  0  0  0
    7.4660    0.2132    0.0000 C   0  0  0  0  0  0  0  0  0  0  0  0
   15.1660    0.2132    0.0000 C   0  0  0  0  0  0  0  0  0  0  0  0
    5.9260    0.2132    0.0000 C   0  0  0  0  0  0  0  0  0  0  0  0
   16.7060    0.2132    0.0000 C   0  0  0  0  0  0  0  0  0  0  0  0
    4.3860    0.2132    0.0000 C   0  0  0  0  0  0  0  0  0  0  0  0
  1 27  1  0  0  0  0
  2 20  1  0  0  0  0
  3 20  1  0  0  0  0
  4 21  1  0  0  0  0
  5 21  1  0  0  0  0
  6 22  1  0  0  0  0
  7 22  1  0  0  0  0
  8 23  1  0  0  0  0
  9 23  1  0  0  0  0
 10 24  1  0  0  0  0
 11 24  1  0  0  0  0
 12 25  1  0  0  0  0
 13 25  1  0  0  0  0
 14 26  1  0  0  0  0
 15 26  1  0  0  0  0
 16 27  1  0  0  0  0
 17 27  1  0  0  0  0
 18 28  1  0  0  0  0
 19 28  2  0  0  0  0
 20 21  1  0  0  0  0
 20 22  1  0  0  0  0
 21 23  1  0  0  0  0
 22 24  1  0  0  0  0
 23 25  1  0  0  0  0
 24 26  1  0  0  0  0
 25 27  1  0  0  0  0
 26 28  1  0  0  0  0
M  END
>  <INPUT>
DTXSID30382104

>  <FOUND_BY>
DSSTox_Substance_Id

>  <DTXSID>
DTXSID30382104

>  <PREFERRED_NAME>
9-Chloro-perfluorononanoic acid

>  <CASRN>
865-79-2

>  <INCHIKEY>
QDGYPYFSHOUVLE-UHFFFAOYSA-N

>  <IUPAC_NAME>
9-Chloro-2,2,3,3,4,4,5,5,6,6,7,7,8,8,9,9-hexadecafluorononanoic acid

>  <SMILES>
OC(=O)C(F)(F)C(F)(F)C(F)(F)C(F)(F)C(F)(F)C(F)(F)C(F)(F)C(F)(F)Cl

>  <INCHI_STRING>
InChI=1S/C9HClF16O2/c10-9(25,26)8(23,24)7(21,22)6(19,20)5(17,18)4(15,16)3(13,14)2(11,12)1(27)28/h(H,27,28)

>  <MOLECULAR_FORMULA>
C9HClF16O2

>  <AVERAGE_MASS>
480.53

>  <MONOISOTOPIC_MASS>
479.9409576

>  <MOL_FILE>
MOL_FILE

$$$$

  -INDIGO-02112615072D

 13 12  0  0  0  0  0  0  0  0999 V2000
    4.4137   -1.8973    0.0000 F   0  0  0  0  0  0  0  0  0  0  0  0
    3.0800   -2.6673    0.0000 C   0  0  0  0  0  0  0  0  0  0  0  0
    1.7463   -3.4373    0.0000 F   0  0  0  0  0  0  0  0  0  0  0  0
    3.8500   -4.0010    0.0000 C   0  0  0  0  0  0  0  0  0  0  0  0
    5.1837   -3.2310    0.0000 F   0  0  0  0  0  0  0  0  0  0  0  0
    2.5163   -4.7710    0.0000 F   0  0  0  0  0  0  0  0  0  0  0  0
    4.6200   -5.3347    0.0000 C   0  0  0  0  0  0  0  0  0  0  0  0
    6.1600   -5.3347    0.0000 O   0  0  0  0  0  0  0  0  0  0  0  0
    2.3100   -1.3337    0.0000 C   0  0  0  0  0  0  0  0  0  0  0  0
    3.6437   -0.5637    0.0000 F   0  0  0  0  0  0  0  0  0  0  0  0
    0.9763   -2.1037    0.0000 F   0  0  0  0  0  0  0  0  0  0  0  0
    1.5400    0.0000    0.0000 C   0  0  0  0  0  0  0  0  0  0  0  0
    0.0000    0.0000    0.0000 O   0  0  0  0  0  0  0  0  0  0  0  0
  1  2  1  0  0  0  0
  2  3  1  0  0  0  0
  2  4  1  0  0  0  0
  4  5  1  0  0  0  0
  4  6  1  0  0  0  0
  4  7  1  0  0  0  0
  7  8  1  0  0  0  0
  2  9  1  0  0  0  0
  9 10  1  0  0  0  0
  9 11  1  0  0  0  0
  9 12  1  0  0  0  0
 12 13  1  0  0  0  0
M  END
>  <INPUT>
DTXSID3059927

>  <FOUND_BY>
DSSTox_Substance_Id

>  <DTXSID>
DTXSID3059927

>  <PREFERRED_NAME>
Hexafluoroamylene glycol

>  <CASRN>
376-90-9

>  <INCHIKEY>
IELVMUPSWDZWSD-UHFFFAOYSA-N

>  <IUPAC_NAME>
2,2,3,3,4,4-Hexafluoropentane-1,5-diol

>  <SMILES>
OCC(F)(F)C(F)(F)C(F)(F)CO

>  <INCHI_STRING>
InChI=1S/C5H6F6O2/c6-3(7,1-12)5(10,11)4(8,9)2-13/h12-13H,1-2H2

>  <MOLECULAR_FORMULA>
C5H6F6O2

>  <AVERAGE_MASS>
212.091

>  <MONOISOTOPIC_MASS>
212.027198411

>  <MOL_FILE>
MOL_FILE

$$$$

  -INDIGO-02112615072D

 43 42  0  0  0  0  0  0  0  0999 V2000
   11.1576    1.3782    0.0000 O   0  0  0  0  0  0  0  0  0  0  0  0
   10.3927    0.0416    0.0000 C   0  0  0  0  0  0  0  0  0  0  0  0
   11.1678   -1.2892    0.0000 O   0  0  0  0  0  0  0  0  0  0  0  0
    8.8526    0.0355    0.0000 C   0  0  0  0  0  0  0  0  0  0  0  0
    8.8585   -1.5045    0.0000 F   0  0  0  0  0  0  0  0  0  0  0  0
    8.8467    1.5756    0.0000 F   0  0  0  0  0  0  0  0  0  0  0  0
    7.3126    0.0296    0.0000 C   0  0  0  0  0  0  0  0  0  0  0  0
    7.3185   -1.5104    0.0000 F   0  0  0  0  0  0  0  0  0  0  0  0
    7.3067    1.5697    0.0000 F   0  0  0  0  0  0  0  0  0  0  0  0
    5.7726    0.0237    0.0000 C   0  0  0  0  0  0  0  0  0  0  0  0
    5.7786   -1.5163    0.0000 F   0  0  0  0  0  0  0  0  0  0  0  0
    5.7667    1.5638    0.0000 F   0  0  0  0  0  0  0  0  0  0  0  0
    4.2325    0.0178    0.0000 C   0  0  0  0  0  0  0  0  0  0  0  0
    4.2385   -1.5222    0.0000 F   0  0  0  0  0  0  0  0  0  0  0  0
    4.2266    1.5579    0.0000 F   0  0  0  0  0  0  0  0  0  0  0  0
    2.6925    0.0119    0.0000 C   0  0  0  0  0  0  0  0  0  0  0  0
    2.6985   -1.5281    0.0000 F   0  0  0  0  0  0  0  0  0  0  0  0
    2.6866    1.5519    0.0000 F   0  0  0  0  0  0  0  0  0  0  0  0
    1.1525    0.0059    0.0000 C   0  0  0  0  0  0  0  0  0  0  0  0
    1.1584   -1.5341    0.0000 F   0  0  0  0  0  0  0  0  0  0  0  0
    1.1465    1.5459    0.0000 F   0  0  0  0  0  0  0  0  0  0  0  0
   -0.3875    0.0000    0.0000 C   0  0  0  0  0  0  0  0  0  0  0  0
   -0.3816   -1.5400    0.0000 F   0  0  0  0  0  0  0  0  0  0  0  0
   -0.3935    1.5400    0.0000 F   0  0  0  0  0  0  0  0  0  0  0  0
   -1.9275   -0.0059    0.0000 C   0  0  0  0  0  0  0  0  0  0  0  0
   -1.9216   -1.5459    0.0000 F   0  0  0  0  0  0  0  0  0  0  0  0
   -1.9334    1.5341    0.0000 F   0  0  0  0  0  0  0  0  0  0  0  0
   -3.4676   -0.0118    0.0000 C   0  0  0  0  0  0  0  0  0  0  0  0
   -3.4617   -1.5519    0.0000 F   0  0  0  0  0  0  0  0  0  0  0  0
   -3.4735    1.5282    0.0000 F   0  0  0  0  0  0  0  0  0  0  0  0
   -5.0076   -0.0177    0.0000 C   0  0  0  0  0  0  0  0  0  0  0  0
   -5.0017   -1.5578    0.0000 F   0  0  0  0  0  0  0  0  0  0  0  0
   -5.0135    1.5222    0.0000 F   0  0  0  0  0  0  0  0  0  0  0  0
   -6.5477   -0.0237    0.0000 C   0  0  0  0  0  0  0  0  0  0  0  0
   -6.5418   -1.5638    0.0000 F   0  0  0  0  0  0  0  0  0  0  0  0
   -6.5536    1.5163    0.0000 F   0  0  0  0  0  0  0  0  0  0  0  0
   -8.0877   -0.0296    0.0000 C   0  0  0  0  0  0  0  0  0  0  0  0
   -8.0818   -1.5697    0.0000 F   0  0  0  0  0  0  0  0  0  0  0  0
   -8.0936    1.5104    0.0000 F   0  0  0  0  0  0  0  0  0  0  0  0
   -9.6278   -0.0355    0.0000 C   0  0  0  0  0  0  0  0  0  0  0  0
   -9.6337    1.5045    0.0000 F   0  0  0  0  0  0  0  0  0  0  0  0
   -9.6219   -1.5756    0.0000 F   0  0  0  0  0  0  0  0  0  0  0  0
  -11.1678   -0.0415    0.0000 F   0  0  0  0  0  0  0  0  0  0  0  0
  1  2  2  0  0  0  0
  2  3  1  0  0  0  0
  2  4  1  0  0  0  0
  4  5  1  0  0  0  0
  4  6  1  0  0  0  0
  4  7  1  0  0  0  0
  7  8  1  0  0  0  0
  7  9  1  0  0  0  0
  7 10  1  0  0  0  0
 10 11  1  0  0  0  0
 10 12  1  0  0  0  0
 10 13  1  0  0  0  0
 13 14  1  0  0  0  0
 13 15  1  0  0  0  0
 13 16  1  0  0  0  0
 16 17  1  0  0  0  0
 16 18  1  0  0  0  0
 16 19  1  0  0  0  0
 19 20  1  0  0  0  0
 19 21  1  0  0  0  0
 19 22  1  0  0  0  0
 22 23  1  0  0  0  0
 22 24  1  0  0  0  0
 22 25  1  0  0  0  0
 25 26  1  0  0  0  0
 25 27  1  0  0  0  0
 25 28  1  0  0  0  0
 28 29  1  0  0  0  0
 28 30  1  0  0  0  0
 28 31  1  0  0  0  0
 31 32  1  0  0  0  0
 31 33  1  0  0  0  0
 31 34  1  0  0  0  0
 34 35  1  0  0  0  0
 34 36  1  0  0  0  0
 34 37  1  0  0  0  0
 37 38  1  0  0  0  0
 37 39  1  0  0  0  0
 37 40  1  0  0  0  0
 40 41  1  0  0  0  0
 40 42  1  0  0  0  0
 40 43  1  0  0  0  0
M  END
>  <INPUT>
DTXSID3059921

>  <FOUND_BY>
DSSTox_Substance_Id

>  <DTXSID>
DTXSID3059921

>  <PREFERRED_NAME>
Perfluorotetradecanoic acid

>  <CASRN>
376-06-7

>  <INCHIKEY>
RUDINRUXCKIXAJ-UHFFFAOYSA-N

>  <IUPAC_NAME>
Heptacosafluorotetradecanoic acid

>  <SMILES>
OC(=O)C(F)(F)C(F)(F)C(F)(F)C(F)(F)C(F)(F)C(F)(F)C(F)(F)C(F)(F)C(F)(F)C(F)(F)C(F)(F)C(F)(F)C(F)(F)F

>  <INCHI_STRING>
InChI=1S/C14HF27O2/c15-2(16,1(42)43)3(17,18)4(19,20)5(21,22)6(23,24)7(25,26)8(27,28)9(29,30)10(31,32)11(33,34)12(35,36)13(37,38)14(39,40)41/h(H,42,43)


>  <MOLECULAR_FORMULA>
C14HF27O2

>  <AVERAGE_MASS>
714.117

>  <MONOISOTOPIC_MASS>
713.954539673

>  <MOL_FILE>
MOL_FILE

$$$$

  -INDIGO-02112615072D

 11 10  0  0  0  0  0  0  0  0999 V2000
    0.5614    0.0000    0.0000 F   0  0  0  0  0  0  0  0  0  0  0  0
    1.3394   -1.3313    0.0000 C   0  0  0  0  0  0  0  0  0  0  0  0
    2.1094   -2.6708    0.0000 F   0  0  0  0  0  0  0  0  0  0  0  0
    0.0000   -2.1094    0.0000 F   0  0  0  0  0  0  0  0  0  0  0  0
    2.6708   -0.5614    0.0000 C   0  0  0  0  0  0  0  0  0  0  0  0
    4.0102   -1.3313    0.0000 O   0  0  0  0  0  0  0  0  0  0  0  0
    5.3495   -0.5614    0.0000 C   0  0  0  0  0  0  0  0  0  0  0  0
    6.6810   -1.3313    0.0000 C   0  0  0  0  0  0  0  0  0  0  0  0
    7.4589    0.0000    0.0000 F   0  0  0  0  0  0  0  0  0  0  0  0
    8.0204   -2.1094    0.0000 F   0  0  0  0  0  0  0  0  0  0  0  0
    5.9110   -2.6708    0.0000 F   0  0  0  0  0  0  0  0  0  0  0  0
  1  2  1  0  0  0  0
  2  3  1  0  0  0  0
  2  4  1  0  0  0  0
  2  5  1  0  0  0  0
  5  6  1  0  0  0  0
  6  7  1  0  0  0  0
  7  8  1  0  0  0  0
  8  9  1  0  0  0  0
  8 10  1  0  0  0  0
  8 11  1  0  0  0  0
M  END
>  <INPUT>
DTXSID5046516

>  <FOUND_BY>
DSSTox_Substance_Id

>  <DTXSID>
DTXSID5046516

>  <PREFERRED_NAME>
Flurothyl

>  <CASRN>
333-36-8

>  <INCHIKEY>
KGPPDNUWZNWPSI-UHFFFAOYSA-N

>  <IUPAC_NAME>
1,1,1-Trifluoro-2-(2,2,2-trifluoroethoxy)ethane

>  <SMILES>
FC(F)(F)COCC(F)(F)F

>  <INCHI_STRING>
InChI=1S/C4H4F6O/c5-3(6,7)1-11-2-4(8,9)10/h1-2H2


>  <MOLECULAR_FORMULA>
C4H4F6O

>  <AVERAGE_MASS>
182.065

>  <MONOISOTOPIC_MASS>
182.016633727

>  <MOL_FILE>
MOL_FILE

$$$$

  -INDIGO-02112615072D

 26 25  0  0  0  0  0  0  0  0999 V2000
    1.5400    0.0000    0.0000 C   0  0  0  0  0  0  0  0  0  0  0  0
    1.5400   -1.5400    0.0000 C   0  0  0  0  0  0  0  0  0  0  0  0
    1.5400   -3.0800    0.0000 C   0  0  0  0  0  0  0  0  0  0  0  0
    1.5400   -4.6200    0.0000 C   0  0  0  0  0  0  0  0  0  0  0  0
    1.5400   -6.1600    0.0000 C   0  0  0  0  0  0  0  0  0  0  0  0
    2.8737   -6.9300    0.0000 F   0  0  0  0  0  0  0  0  0  0  0  0
    0.2063   -6.9300    0.0000 F   0  0  0  0  0  0  0  0  0  0  0  0
    3.0800   -4.6200    0.0000 F   0  0  0  0  0  0  0  0  0  0  0  0
    0.0000   -4.6200    0.0000 F   0  0  0  0  0  0  0  0  0  0  0  0
    3.0800   -3.0800    0.0000 F   0  0  0  0  0  0  0  0  0  0  0  0
    0.0000   -3.0800    0.0000 F   0  0  0  0  0  0  0  0  0  0  0  0
    3.0800   -1.5400    0.0000 F   0  0  0  0  0  0  0  0  0  0  0  0
    0.0000   -1.5400    0.0000 F   0  0  0  0  0  0  0  0  0  0  0  0
    1.5400    1.5400    0.0000 C   0  0  0  0  0  0  0  0  0  0  0  0
    1.5400    3.0800    0.0000 C   0  0  0  0  0  0  0  0  0  0  0  0
    1.5400    4.6200    0.0000 C   0  0  0  0  0  0  0  0  0  0  0  0
    1.5400    6.1600    0.0000 C   0  0  0  0  0  0  0  0  0  0  0  0
    0.2063    6.9300    0.0000 O   0  0  0  0  0  0  0  0  0  0  0  0
    3.0800    4.6200    0.0000 F   0  0  0  0  0  0  0  0  0  0  0  0
    0.0000    4.6200    0.0000 F   0  0  0  0  0  0  0  0  0  0  0  0
    3.0800    3.0800    0.0000 F   0  0  0  0  0  0  0  0  0  0  0  0
    0.0000    3.0800    0.0000 F   0  0  0  0  0  0  0  0  0  0  0  0
    3.0800    1.5400    0.0000 F   0  0  0  0  0  0  0  0  0  0  0  0
    0.0000    1.5400    0.0000 F   0  0  0  0  0  0  0  0  0  0  0  0
    3.0800    0.0000    0.0000 F   0  0  0  0  0  0  0  0  0  0  0  0
    0.0000    0.0000    0.0000 F   0  0  0  0  0  0  0  0  0  0  0  0
  1  2  1  0  0  0  0
  2  3  1  0  0  0  0
  3  4  1  0  0  0  0
  4  5  1  0  0  0  0
  5  6  1  0  0  0  0
  5  7  1  0  0  0  0
  4  8  1  0  0  0  0
  4  9  1  0  0  0  0
  3 10  1  0  0  0  0
  3 11  1  0  0  0  0
  2 12  1  0  0  0  0
  2 13  1  0  0  0  0
  1 14  1  0  0  0  0
 14 15  1  0  0  0  0
 15 16  1  0  0  0  0
 16 17  1  0  0  0  0
 17 18  1  0  0  0  0
 16 19  1  0  0  0  0
 16 20  1  0  0  0  0
 15 21  1  0  0  0  0
 15 22  1  0  0  0  0
 14 23  1  0  0  0  0
 14 24  1  0  0  0  0
  1 25  1  0  0  0  0
  1 26  1  0  0  0  0
M  END
>  <INPUT>
DTXSID3059923

>  <FOUND_BY>
DSSTox_Substance_Id

>  <DTXSID>
DTXSID3059923

>  <PREFERRED_NAME>
1H,1H,9H-Hexadecafluoro-1-nonanol

>  <CASRN>
376-18-1

>  <INCHIKEY>
MSXVQELLSMPBFD-UHFFFAOYSA-N

>  <IUPAC_NAME>
2,2,3,3,4,4,5,5,6,6,7,7,8,8,9,9-Hexadecafluorononan-1-ol

>  <SMILES>
OCC(F)(F)C(F)(F)C(F)(F)C(F)(F)C(F)(F)C(F)(F)C(F)(F)C(F)F

>  <INCHI_STRING>
InChI=1S/C9H4F16O/c10-2(11)4(14,15)6(18,19)8(22,23)9(24,25)7(20,21)5(16,17)3(12,13)1-26/h2,26H,1H2

>  <MOLECULAR_FORMULA>
C9H4F16O

>  <AVERAGE_MASS>
432.104

>  <MONOISOTOPIC_MASS>
432.000665357

>  <MOL_FILE>
MOL_FILE

$$$$

  -INDIGO-02112615072D

 23 22  0  0  0  0  0  0  0  0999 V2000
    5.6132   -3.1655    0.0000 C   0  0  0  0  0  0  0  0  0  0  0  0
    7.1532   -3.1655    0.0000 C   0  0  0  0  0  0  0  0  0  0  0  0
    8.6932   -3.1655    0.0000 C   0  0  0  0  0  0  0  0  0  0  0  0
   10.2332   -3.1655    0.0000 C   0  0  0  0  0  0  0  0  0  0  0  0
   11.7732   -3.1655    0.0000 C   0  0  0  0  0  0  0  0  0  0  0  0
   13.3132   -3.1655    0.0000 C   0  0  0  0  0  0  0  0  0  0  0  0
    4.0732   -3.1655    0.0000 S   0  0  0  0  0  0  0  0  0  0  0  0
    2.5332   -3.1655    0.0000 O   0  0  0  0  0  0  0  0  0  0  0  0
    4.0732   -4.7055    0.0000 O   0  0  0  0  0  0  0  0  0  0  0  0
    4.0732   -1.6255    0.0000 O   0  0  0  0  0  0  0  0  0  0  0  0
    5.6132   -4.7055    0.0000 F   0  0  0  0  0  0  0  0  0  0  0  0
    5.6132   -1.6255    0.0000 F   0  0  0  0  0  0  0  0  0  0  0  0
    7.1532   -4.7055    0.0000 F   0  0  0  0  0  0  0  0  0  0  0  0
    7.1532   -1.6255    0.0000 F   0  0  0  0  0  0  0  0  0  0  0  0
    8.6932   -4.7055    0.0000 F   0  0  0  0  0  0  0  0  0  0  0  0
    8.6932   -1.6255    0.0000 F   0  0  0  0  0  0  0  0  0  0  0  0
   10.2332   -4.7055    0.0000 F   0  0  0  0  0  0  0  0  0  0  0  0
   10.2332   -1.6255    0.0000 F   0  0  0  0  0  0  0  0  0  0  0  0
   11.7732   -4.7055    0.0000 F   0  0  0  0  0  0  0  0  0  0  0  0
   11.7732   -1.6255    0.0000 F   0  0  0  0  0  0  0  0  0  0  0  0
   14.8532   -3.1655    0.0000 F   0  0  0  0  0  0  0  0  0  0  0  0
   13.3132   -4.7055    0.0000 F   0  0  0  0  0  0  0  0  0  0  0  0
   13.3132   -1.6255    0.0000 F   0  0  0  0  0  0  0  0  0  0  0  0
  1  2  1  0  0  0  0
  1  7  1  0  0  0  0
  1 11  1  0  0  0  0
  1 12  1  0  0  0  0
  2  3  1  0  0  0  0
  2 13  1  0  0  0  0
  2 14  1  0  0  0  0
  3  4  1  0  0  0  0
  3 15  1  0  0  0  0
  3 16  1  0  0  0  0
  4  5  1  0  0  0  0
  4 17  1  0  0  0  0
  4 18  1  0  0  0  0
  5  6  1  0  0  0  0
  5 19  1  0  0  0  0
  5 20  1  0  0  0  0
  6 21  1  0  0  0  0
  6 22  1  0  0  0  0
  6 23  1  0  0  0  0
  7  8  1  0  0  0  0
  7  9  2  0  0  0  0
  7 10  2  0  0  0  0
M  END
>  <INPUT>
DTXSID7040150

>  <FOUND_BY>
DSSTox_Substance_Id

>  <DTXSID>
DTXSID7040150

>  <PREFERRED_NAME>
Perfluorohexanesulfonic acid

>  <CASRN>
355-46-4

>  <INCHIKEY>
QZHDEAJFRJCDMF-UHFFFAOYSA-N

>  <IUPAC_NAME>
Tridecafluorohexane-1-sulfonic acid

>  <SMILES>
OS(=O)(=O)C(F)(F)C(F)(F)C(F)(F)C(F)(F)C(F)(F)C(F)(F)F

>  <INCHI_STRING>
InChI=1S/C6HF13O3S/c7-1(8,3(11,12)5(15,16)17)2(9,10)4(13,14)6(18,19)23(20,21)22/h(H,20,21,22)


>  <MOLECULAR_FORMULA>
C6HF13O3S

>  <AVERAGE_MASS>
400.11

>  <MONOISOTOPIC_MASS>
399.943881185

>  <MOL_FILE>
MOL_FILE

$$$$

  -INDIGO-02112615072D

 19 18  0  0  0  0  0  0  0  0999 V2000
   -1.0394    0.6122    0.0000 F   0  0  0  0  0  0  0  0  0  0  0  0
    1.6279    2.1522    0.0000 F   0  0  0  0  0  0  0  0  0  0  0  0
   -0.2694   -0.7215    0.0000 F   0  0  0  0  0  0  0  0  0  0  0  0
    2.3979    0.8185    0.0000 F   0  0  0  0  0  0  0  0  0  0  0  0
   -1.8094    1.9458    0.0000 F   0  0  0  0  0  0  0  0  0  0  0  0
    0.8579    3.4858    0.0000 F   0  0  0  0  0  0  0  0  0  0  0  0
   -0.4758    5.3832    0.0000 F   0  0  0  0  0  0  0  0  0  0  0  0
   -2.7858    4.0495    0.0000 F   0  0  0  0  0  0  0  0  0  0  0  0
    1.0642   -2.6189    0.0000 O   0  0  0  0  0  0  0  0  0  0  0  0
    3.3742   -3.9526    0.0000 O   0  0  0  0  0  0  0  0  0  0  0  0
    0.2942    1.3822    0.0000 C   0  0  0  0  0  0  0  0  0  0  0  0
    1.0642    0.0485    0.0000 C   0  0  0  0  0  0  0  0  0  0  0  0
   -0.4758    2.7158    0.0000 C   0  0  0  0  0  0  0  0  0  0  0  0
    1.8342   -1.2852    0.0000 C   0  0  0  0  0  0  0  0  0  0  0  0
   -1.2458    4.0495    0.0000 C   0  0  0  0  0  0  0  0  0  0  0  0
    1.8342   -3.9526    0.0000 C   0  0  0  0  0  0  0  0  0  0  0  0
    1.0642   -5.2862    0.0000 C   0  0  0  0  0  0  0  0  0  0  0  0
    1.8342   -6.6199    0.0000 C   0  0  0  0  0  0  0  0  0  0  0  0
   -0.4758   -5.2862    0.0000 C   0  0  0  0  0  0  0  0  0  0  0  0
  1 11  1  0  0  0  0
  2 11  1  0  0  0  0
  3 12  1  0  0  0  0
  4 12  1  0  0  0  0
  5 13  1  0  0  0  0
  6 13  1  0  0  0  0
  7 15  1  0  0  0  0
  8 15  1  0  0  0  0
  9 14  1  0  0  0  0
  9 16  1  0  0  0  0
 10 16  2  0  0  0  0
 11 12  1  0  0  0  0
 11 13  1  0  0  0  0
 12 14  1  0  0  0  0
 13 15  1  0  0  0  0
 16 17  1  0  0  0  0
 17 18  1  0  0  0  0
 17 19  2  0  0  0  0
M  END
>  <INPUT>
DTXSID90880131

>  <FOUND_BY>
DSSTox_Substance_Id

>  <DTXSID>
DTXSID90880131

>  <PREFERRED_NAME>
1H,1H,5H-Perfluoropentyl methacrylate

>  <CASRN>
355-93-1

>  <INCHIKEY>
ZNJXRXXJPIFFAO-UHFFFAOYSA-N

>  <IUPAC_NAME>
2,2,3,3,4,4,5,5-Octafluoropentyl 2-methylprop-2-enoate

>  <SMILES>
CC(=C)C(=O)OCC(F)(F)C(F)(F)C(F)(F)C(F)F

>  <INCHI_STRING>
InChI=1S/C9H8F8O2/c1-4(2)5(18)19-3-7(12,13)9(16,17)8(14,15)6(10)11/h6H,1,3H2,2H3


>  <MOLECULAR_FORMULA>
C9H8F8O2

>  <AVERAGE_MASS>
300.148

>  <MONOISOTOPIC_MASS>
300.039654802

>  <MOL_FILE>
MOL_FILE

$$$$

  -INDIGO-02112615072D

 18 17  0  0  0  0  0  0  0  0999 V2000
    6.3112    1.3337    0.0000 F   0  0  0  0  0  0  0  0  0  0  0  0
    7.8512   -1.3337    0.0000 F   0  0  0  0  0  0  0  0  0  0  0  0
    7.6449    2.1037    0.0000 F   0  0  0  0  0  0  0  0  0  0  0  0
    9.1849   -0.5637    0.0000 F   0  0  0  0  0  0  0  0  0  0  0  0
    4.9775    0.5637    0.0000 F   0  0  0  0  0  0  0  0  0  0  0  0
    6.5175   -2.1037    0.0000 F   0  0  0  0  0  0  0  0  0  0  0  0
   10.5187    0.2065    0.0000 F   0  0  0  0  0  0  0  0  0  0  0  0
    8.9785    2.8737    0.0000 F   0  0  0  0  0  0  0  0  0  0  0  0
    3.0800   -2.3100    0.0000 F   0  0  0  0  0  0  0  0  0  0  0  0
    3.6437   -0.2065    0.0000 F   0  0  0  0  0  0  0  0  0  0  0  0
    5.1837   -2.8737    0.0000 F   0  0  0  0  0  0  0  0  0  0  0  0
   12.4161    1.5400    0.0000 N   0  0  0  0  0  0  0  0  0  0  0  0
    7.0812    0.0000    0.0000 C   0  0  0  0  0  0  0  0  0  0  0  0
    8.4149    0.7700    0.0000 C   0  0  0  0  0  0  0  0  0  0  0  0
    9.7485    1.5400    0.0000 C   0  0  0  0  0  0  0  0  0  0  0  0
    5.7475   -0.7700    0.0000 C   0  0  0  0  0  0  0  0  0  0  0  0
   11.0824    2.3100    0.0000 C   0  0  0  0  0  0  0  0  0  0  0  0
    4.4137   -1.5400    0.0000 C   0  0  0  0  0  0  0  0  0  0  0  0
  1 13  1  0  0  0  0
  2 13  1  0  0  0  0
  3 14  1  0  0  0  0
  4 14  1  0  0  0  0
  5 16  1  0  0  0  0
  6 16  1  0  0  0  0
  7 15  1  0  0  0  0
  8 15  1  0  0  0  0
  9 18  1  0  0  0  0
 10 18  1  0  0  0  0
 11 18  1  0  0  0  0
 12 17  1  0  0  0  0
 13 14  1  0  0  0  0
 13 16  1  0  0  0  0
 14 15  1  0  0  0  0
 15 17  1  0  0  0  0
 16 18  1  0  0  0  0
M  END
>  <INPUT>
DTXSID50620171

>  <FOUND_BY>
DSSTox_Substance_Id

>  <DTXSID>
DTXSID50620171

>  <PREFERRED_NAME>
1H,1H-Perfluorohexylamine

>  <CASRN>
355-34-0

>  <INCHIKEY>
FDIHRNYGDZQEAV-UHFFFAOYSA-N

>  <IUPAC_NAME>
2,2,3,3,4,4,5,5,6,6,6-Undecafluorohexan-1-amine

>  <SMILES>
NCC(F)(F)C(F)(F)C(F)(F)C(F)(F)C(F)(F)F

>  <INCHI_STRING>
InChI=1S/C6H4F11N/c7-2(8,1-18)3(9,10)4(11,12)5(13,14)6(15,16)17/h1,18H2

>  <MOLECULAR_FORMULA>
C6H4F11N

>  <AVERAGE_MASS>
299.087

>  <MONOISOTOPIC_MASS>
299.016808926

>  <MOL_FILE>
MOL_FILE

$$$$

  -INDIGO-02112615072D

 18 17  0  0  0  0  0  0  0  0999 V2000
    1.5400    0.0000    0.0000 C   0  0  0  0  0  0  0  0  0  0  0  0
    2.3100    1.3337    0.0000 C   0  0  0  0  0  0  0  0  0  0  0  0
    3.0800    2.6673    0.0000 C   0  0  0  0  0  0  0  0  0  0  0  0
    3.8500    4.0010    0.0000 C   0  0  0  0  0  0  0  0  0  0  0  0
    4.6200    5.3347    0.0000 C   0  0  0  0  0  0  0  0  0  0  0  0
    5.3900    6.6685    0.0000 C   0  0  0  0  0  0  0  0  0  0  0  0
    4.6200    8.0020    0.0000 F   0  0  0  0  0  0  0  0  0  0  0  0
    6.9300    6.6685    0.0000 F   0  0  0  0  0  0  0  0  0  0  0  0
    3.2863    6.1047    0.0000 F   0  0  0  0  0  0  0  0  0  0  0  0
    5.9537    4.5647    0.0000 F   0  0  0  0  0  0  0  0  0  0  0  0
    2.5163    4.7710    0.0000 F   0  0  0  0  0  0  0  0  0  0  0  0
    5.1837    3.2310    0.0000 F   0  0  0  0  0  0  0  0  0  0  0  0
    1.7463    3.4373    0.0000 F   0  0  0  0  0  0  0  0  0  0  0  0
    4.4137    1.8973    0.0000 F   0  0  0  0  0  0  0  0  0  0  0  0
    0.9763    2.1037    0.0000 F   0  0  0  0  0  0  0  0  0  0  0  0
    3.6437    0.5637    0.0000 F   0  0  0  0  0  0  0  0  0  0  0  0
    2.3100   -1.3337    0.0000 F   0  0  0  0  0  0  0  0  0  0  0  0
    0.0000    0.0000    0.0000 F   0  0  0  0  0  0  0  0  0  0  0  0
  1  2  1  0  0  0  0
  2  3  1  0  0  0  0
  3  4  1  0  0  0  0
  4  5  1  0  0  0  0
  5  6  1  0  0  0  0
  6  7  1  0  0  0  0
  6  8  1  0  0  0  0
  5  9  1  0  0  0  0
  5 10  1  0  0  0  0
  4 11  1  0  0  0  0
  4 12  1  0  0  0  0
  3 13  1  0  0  0  0
  3 14  1  0  0  0  0
  2 15  1  0  0  0  0
  2 16  1  0  0  0  0
  1 17  1  0  0  0  0
  1 18  1  0  0  0  0
M  END
>  <INPUT>
DTXSID5075230

>  <FOUND_BY>
DSSTox_Substance_Id

>  <DTXSID>
DTXSID5075230

>  <PREFERRED_NAME>
1H,6H-Perfluorohexane

>  <CASRN>
336-07-2

>  <INCHIKEY>
UYDBQWIWVMBDME-UHFFFAOYSA-N

>  <IUPAC_NAME>
1,1,2,2,3,3,4,4,5,5,6,6-Dodecafluorohexane

>  <SMILES>
FC(F)C(F)(F)C(F)(F)C(F)(F)C(F)(F)C(F)F

>  <INCHI_STRING>
InChI=1S/C6H2F12/c7-1(8)3(11,12)5(15,16)6(17,18)4(13,14)2(9)10/h1-2H

>  <MOLECULAR_FORMULA>
C6H2F12

>  <AVERAGE_MASS>
302.063

>  <MONOISOTOPIC_MASS>
301.99648802

>  <MOL_FILE>
MOL_FILE

$$$$

  -INDIGO-02112615072D

 27 26  0  0  0  0  0  0  0  0999 V2000
    8.9785    1.6154    0.0000 F   0  0  0  0  0  0  0  0  0  0  0  0
   10.5187   -1.0519    0.0000 F   0  0  0  0  0  0  0  0  0  0  0  0
    7.6449    0.8454    0.0000 F   0  0  0  0  0  0  0  0  0  0  0  0
    9.1849   -1.8219    0.0000 F   0  0  0  0  0  0  0  0  0  0  0  0
   11.8524   -0.2819    0.0000 F   0  0  0  0  0  0  0  0  0  0  0  0
   10.3124    2.3856    0.0000 F   0  0  0  0  0  0  0  0  0  0  0  0
    6.3112    0.0754    0.0000 F   0  0  0  0  0  0  0  0  0  0  0  0
    7.8512   -2.5919    0.0000 F   0  0  0  0  0  0  0  0  0  0  0  0
   13.1861    0.4881    0.0000 F   0  0  0  0  0  0  0  0  0  0  0  0
   11.6461    3.1556    0.0000 F   0  0  0  0  0  0  0  0  0  0  0  0
    4.9775   -0.6946    0.0000 F   0  0  0  0  0  0  0  0  0  0  0  0
    6.5175   -3.3619    0.0000 F   0  0  0  0  0  0  0  0  0  0  0  0
    3.0800   -3.5683    0.0000 F   0  0  0  0  0  0  0  0  0  0  0  0
    3.6437   -1.4646    0.0000 F   0  0  0  0  0  0  0  0  0  0  0  0
    5.1837   -4.1319    0.0000 F   0  0  0  0  0  0  0  0  0  0  0  0
   17.7509    1.8219    0.0000 O   0  0  0  0  0  0  0  0  0  0  0  0
   16.4171    4.1319    0.0000 O   0  0  0  0  0  0  0  0  0  0  0  0
    9.7485    0.2819    0.0000 C   0  0  0  0  0  0  0  0  0  0  0  0
    8.4149   -0.4881    0.0000 C   0  0  0  0  0  0  0  0  0  0  0  0
   11.0824    1.0519    0.0000 C   0  0  0  0  0  0  0  0  0  0  0  0
    7.0812   -1.2581    0.0000 C   0  0  0  0  0  0  0  0  0  0  0  0
   12.4161    1.8219    0.0000 C   0  0  0  0  0  0  0  0  0  0  0  0
    5.7475   -2.0281    0.0000 C   0  0  0  0  0  0  0  0  0  0  0  0
   13.7497    2.5919    0.0000 C   0  0  0  0  0  0  0  0  0  0  0  0
   15.0834    1.8219    0.0000 C   0  0  0  0  0  0  0  0  0  0  0  0
    4.4137   -2.7983    0.0000 C   0  0  0  0  0  0  0  0  0  0  0  0
   16.4171    2.5919    0.0000 C   0  0  0  0  0  0  0  0  0  0  0  0
  1 18  1  0  0  0  0
  2 18  1  0  0  0  0
  3 19  1  0  0  0  0
  4 19  1  0  0  0  0
  5 20  1  0  0  0  0
  6 20  1  0  0  0  0
  7 21  1  0  0  0  0
  8 21  1  0  0  0  0
  9 22  1  0  0  0  0
 10 22  1  0  0  0  0
 11 23  1  0  0  0  0
 12 23  1  0  0  0  0
 13 26  1  0  0  0  0
 14 26  1  0  0  0  0
 15 26  1  0  0  0  0
 16 27  1  0  0  0  0
 17 27  2  0  0  0  0
 18 19  1  0  0  0  0
 18 20  1  0  0  0  0
 19 21  1  0  0  0  0
 20 22  1  0  0  0  0
 21 23  1  0  0  0  0
 22 24  1  0  0  0  0
 23 26  1  0  0  0  0
 24 25  1  0  0  0  0
 25 27  1  0  0  0  0
M  END
>  <INPUT>
DTXSID90382620

>  <FOUND_BY>
DSSTox_Substance_Id

>  <DTXSID>
DTXSID90382620

>  <PREFERRED_NAME>
3-(Perfluoroheptyl)propanoic acid

>  <CASRN>
812-70-4

>  <INCHIKEY>
HLBRGVKRZQSQHB-UHFFFAOYSA-N

>  <IUPAC_NAME>
4,4,5,5,6,6,7,7,8,8,9,9,10,10,10-Pentadecafluorodecanoic acid

>  <SMILES>
OC(=O)CCC(F)(F)C(F)(F)C(F)(F)C(F)(F)C(F)(F)C(F)(F)C(F)(F)F

>  <INCHI_STRING>
InChI=1S/C10H5F15O2/c11-4(12,2-1-3(26)27)5(13,14)6(15,16)7(17,18)8(19,20)9(21,22)10(23,24)25/h1-2H2,(H,26,27)

>  <MOLECULAR_FORMULA>
C10H5F15O2

>  <AVERAGE_MASS>
442.124

>  <MONOISOTOPIC_MASS>
442.005001846

>  <MOL_FILE>
MOL_FILE

$$$$

  -INDIGO-02112615072D

 12 11  0  0  0  0  0  0  0  0999 V2000
    7.0812    1.8219    0.0000 F   0  0  0  0  0  0  0  0  0  0  0  0
    4.9775    0.8454    0.0000 F   0  0  0  0  0  0  0  0  0  0  0  0
    6.5175   -1.8219    0.0000 F   0  0  0  0  0  0  0  0  0  0  0  0
   11.0824    1.0519    0.0000 F   0  0  0  0  0  0  0  0  0  0  0  0
   10.5187   -1.0519    0.0000 F   0  0  0  0  0  0  0  0  0  0  0  0
    8.9785    1.6154    0.0000 F   0  0  0  0  0  0  0  0  0  0  0  0
    8.4149   -0.4881    0.0000 O   0  0  0  0  0  0  0  0  0  0  0  0
    4.4137   -1.2581    0.0000 O   0  0  0  0  0  0  0  0  0  0  0  0
    7.0812    0.2819    0.0000 C   0  0  0  0  0  0  0  0  0  0  0  0
    5.7475   -0.4881    0.0000 C   0  0  0  0  0  0  0  0  0  0  0  0
    9.7485    0.2819    0.0000 C   0  0  0  0  0  0  0  0  0  0  0  0
    3.0800   -0.4881    0.0000 C   0  0  0  0  0  0  0  0  0  0  0  0
  1  9  1  0  0  0  0
  2 10  1  0  0  0  0
  3 10  1  0  0  0  0
  4 11  1  0  0  0  0
  5 11  1  0  0  0  0
  6 11  1  0  0  0  0
  7  9  1  0  0  0  0
  7 11  1  0  0  0  0
  8 10  1  0  0  0  0
  8 12  1  0  0  0  0
  9 10  1  0  0  0  0
M  END
>  <INPUT>
DTXSID90623282

>  <FOUND_BY>
DSSTox_Substance_Id

>  <DTXSID>
DTXSID90623282

>  <PREFERRED_NAME>
1,1,2-Trifluoro-1-methoxy-2-(trifluoromethoxy)ethane

>  <CASRN>
996-56-5

>  <INCHIKEY>
PYSBCYQDWOCAHY-UHFFFAOYNA-N

>  <IUPAC_NAME>
1,1,2-Trifluoro-1-methoxy-2-(trifluoromethoxy)ethane

>  <SMILES>
COC(F)(F)C(F)OC(F)(F)F

>  <INCHI_STRING>
InChI=1S/C4H4F6O2/c1-11-3(6,7)2(5)12-4(8,9)10/h2H,1H3

>  <MOLECULAR_FORMULA>
C4H4F6O2

>  <AVERAGE_MASS>
198.064

>  <MONOISOTOPIC_MASS>
198.011548347

>  <MOL_FILE>
MOL_FILE

$$$$

  -INDIGO-02112615072D

 25 24  0  0  0  0  0  0  0  0999 V2000
    0.9763   -4.7709    0.0000 C   0  0  0  0  0  0  0  0  0  0  0  0
    0.2063   -3.4373    0.0000 C   0  0  0  0  0  0  0  0  0  0  0  0
    0.9763   -2.1037    0.0000 O   0  0  0  0  0  0  0  0  0  0  0  0
    0.2063   -0.7700    0.0000 C   0  0  0  0  0  0  0  0  0  0  0  0
   -0.5637    0.5637    0.0000 F   0  0  0  0  0  0  0  0  0  0  0  0
    1.5400    0.0000    0.0000 C   0  0  0  0  0  0  0  0  0  0  0  0
    2.3100   -1.3337    0.0000 F   0  0  0  0  0  0  0  0  0  0  0  0
    0.7700    1.3337    0.0000 C   0  0  0  0  0  0  0  0  0  0  0  0
    0.0000    2.6674    0.0000 F   0  0  0  0  0  0  0  0  0  0  0  0
    2.1037    2.1037    0.0000 F   0  0  0  0  0  0  0  0  0  0  0  0
   -0.7616    1.4947    0.0000 F   0  0  0  0  0  0  0  0  0  0  0  0
    2.8737    0.7700    0.0000 C   0  0  0  0  0  0  0  0  0  0  0  0
    3.6437   -0.5637    0.0000 F   0  0  0  0  0  0  0  0  0  0  0  0
    3.0347    2.3016    0.0000 F   0  0  0  0  0  0  0  0  0  0  0  0
    4.2074    1.5400    0.0000 F   0  0  0  0  0  0  0  0  0  0  0  0
   -1.1274   -1.5400    0.0000 C   0  0  0  0  0  0  0  0  0  0  0  0
   -1.8974   -0.2063    0.0000 F   0  0  0  0  0  0  0  0  0  0  0  0
   -0.3574   -2.8737    0.0000 F   0  0  0  0  0  0  0  0  0  0  0  0
   -2.4610   -2.3100    0.0000 C   0  0  0  0  0  0  0  0  0  0  0  0
   -3.2310   -0.9763    0.0000 F   0  0  0  0  0  0  0  0  0  0  0  0
   -1.6910   -3.6437    0.0000 F   0  0  0  0  0  0  0  0  0  0  0  0
   -3.7947   -3.0800    0.0000 C   0  0  0  0  0  0  0  0  0  0  0  0
   -5.1283   -3.8500    0.0000 F   0  0  0  0  0  0  0  0  0  0  0  0
   -4.5646   -1.7463    0.0000 F   0  0  0  0  0  0  0  0  0  0  0  0
   -3.0247   -4.4136    0.0000 F   0  0  0  0  0  0  0  0  0  0  0  0
  1  2  1  0  0  0  0
  2  3  1  0  0  0  0
  3  4  1  0  0  0  0
  4  5  1  0  0  0  0
  4  6  1  0  0  0  0
  6  7  1  0  0  0  0
  6  8  1  0  0  0  0
  8  9  1  0  0  0  0
  8 10  1  0  0  0  0
  8 11  1  0  0  0  0
  6 12  1  0  0  0  0
 12 13  1  0  0  0  0
 12 14  1  0  0  0  0
 12 15  1  0  0  0  0
  4 16  1  0  0  0  0
 16 17  1  0  0  0  0
 16 18  1  0  0  0  0
 16 19  1  0  0  0  0
 19 20  1  0  0  0  0
 19 21  1  0  0  0  0
 19 22  1  0  0  0  0
 22 23  1  0  0  0  0
 22 24  1  0  0  0  0
 22 25  1  0  0  0  0
M  END
>  <INPUT>
DTXSID90870315

>  <FOUND_BY>
DSSTox_Substance_Id

>  <DTXSID>
DTXSID90870315

>  <PREFERRED_NAME>
3-Ethoxyperfluoro(2-methylhexane)

>  <CASRN>
297730-93-9

>  <INCHIKEY>
HHBBIOLEJRWIGU-UHFFFAOYNA-N

>  <IUPAC_NAME>
3-Ethoxy-1,1,1,2,3,4,4,5,5,6,6,6-dodecafluoro-2-(trifluoromethyl)hexane

>  <SMILES>
CCOC(F)(C(F)(F)C(F)(F)C(F)(F)F)C(F)(C(F)(F)F)C(F)(F)F

>  <INCHI_STRING>
InChI=1S/C9H5F15O/c1-2-25-6(15,3(10,7(16,17)18)8(19,20)21)4(11,12)5(13,14)9(22,23)24/h2H2,1H3

>  <MOLECULAR_FORMULA>
C9H5F15O

>  <AVERAGE_MASS>
414.114

>  <MONOISOTOPIC_MASS>
414.010087226

>  <MOL_FILE>
MOL_FILE

$$$$

  -INDIGO-02112615072D

 13 12  0  0  0  0  0  0  0  0999 V2000
    3.6437    2.8737    0.0000 I   0  0  0  0  0  0  0  0  0  0  0  0
    6.5175   -2.1037    0.0000 F   0  0  0  0  0  0  0  0  0  0  0  0
    8.4149    0.7700    0.0000 F   0  0  0  0  0  0  0  0  0  0  0  0
    7.0812    1.5400    0.0000 F   0  0  0  0  0  0  0  0  0  0  0  0
    3.0800   -2.3100    0.0000 F   0  0  0  0  0  0  0  0  0  0  0  0
    3.6437   -0.2065    0.0000 F   0  0  0  0  0  0  0  0  0  0  0  0
    5.1837   -2.8737    0.0000 F   0  0  0  0  0  0  0  0  0  0  0  0
    7.8512   -1.3337    0.0000 F   0  0  0  0  0  0  0  0  0  0  0  0
    5.7475   -0.7700    0.0000 C   0  0  0  0  0  0  0  0  0  0  0  0
    4.9775    0.5637    0.0000 C   0  0  0  0  0  0  0  0  0  0  0  0
    7.0812    0.0000    0.0000 C   0  0  0  0  0  0  0  0  0  0  0  0
    4.4137   -1.5400    0.0000 C   0  0  0  0  0  0  0  0  0  0  0  0
    4.9775    2.1037    0.0000 C   0  0  0  0  0  0  0  0  0  0  0  0
  1 13  1  0  0  0  0
  2  9  1  0  0  0  0
  3 11  1  0  0  0  0
  4 11  1  0  0  0  0
  5 12  1  0  0  0  0
  6 12  1  0  0  0  0
  7 12  1  0  0  0  0
  8 11  1  0  0  0  0
  9 10  1  0  0  0  0
  9 11  1  0  0  0  0
  9 12  1  0  0  0  0
 10 13  1  0  0  0  0
M  END
>  <INPUT>
DTXSID70348047

>  <FOUND_BY>
DSSTox_Substance_Id

>  <DTXSID>
DTXSID70348047

>  <PREFERRED_NAME>
2-(2-Iodoethyl)perfluoropropane

>  <CASRN>
99324-96-6

>  <INCHIKEY>
NRVDKMYDLZBFEH-UHFFFAOYSA-N

>  <IUPAC_NAME>
1,1,1,2-Tetrafluoro-4-iodo-2-(trifluoromethyl)butane

>  <SMILES>
FC(F)(F)C(F)(CCI)C(F)(F)F

>  <INCHI_STRING>
InChI=1S/C5H4F7I/c6-3(1-2-13,4(7,8)9)5(10,11)12/h1-2H2

>  <MOLECULAR_FORMULA>
C5H4F7I

>  <AVERAGE_MASS>
323.98

>  <MONOISOTOPIC_MASS>
323.92459

>  <MOL_FILE>
MOL_FILE

$$$$

  -INDIGO-02112615072D

 18 17  0  0  0  0  0  0  0  0999 V2000
    1.5400    0.0000    0.0000 C   0  0  0  0  0  0  0  0  0  0  0  0
    1.5400   -1.5400    0.0000 C   0  0  0  0  0  0  0  0  0  0  0  0
    1.5400   -3.0800    0.0000 C   0  0  0  0  0  0  0  0  0  0  0  0
    0.2063   -3.8500    0.0000 F   0  0  0  0  0  0  0  0  0  0  0  0
    2.8737   -3.8500    0.0000 F   0  0  0  0  0  0  0  0  0  0  0  0
    3.0800   -1.5400    0.0000 F   0  0  0  0  0  0  0  0  0  0  0  0
    0.0000   -1.5400    0.0000 F   0  0  0  0  0  0  0  0  0  0  0  0
    1.5400    1.5400    0.0000 C   0  0  0  0  0  0  0  0  0  0  0  0
    1.5400    3.0800    0.0000 C   0  0  0  0  0  0  0  0  0  0  0  0
    2.8737    3.8500    0.0000 O   0  0  0  0  0  0  0  0  0  0  0  0
    2.8737    5.3900    0.0000 C   0  0  0  0  0  0  0  0  0  0  0  0
    4.2073    6.1600    0.0000 C   0  0  0  0  0  0  0  0  0  0  0  0
    4.2073    7.7000    0.0000 C   0  0  0  0  0  0  0  0  0  0  0  0
    1.5400    6.1600    0.0000 O   0  0  0  0  0  0  0  0  0  0  0  0
    3.0800    1.5400    0.0000 F   0  0  0  0  0  0  0  0  0  0  0  0
    0.0000    1.5400    0.0000 F   0  0  0  0  0  0  0  0  0  0  0  0
    3.0800    0.0000    0.0000 F   0  0  0  0  0  0  0  0  0  0  0  0
    0.0000    0.0000    0.0000 F   0  0  0  0  0  0  0  0  0  0  0  0
  1  2  1  0  0  0  0
  2  3  1  0  0  0  0
  3  4  1  0  0  0  0
  3  5  1  0  0  0  0
  2  6  1  0  0  0  0
  2  7  1  0  0  0  0
  1  8  1  0  0  0  0
  8  9  1  0  0  0  0
  9 10  1  0  0  0  0
 10 11  1  0  0  0  0
 11 12  1  0  0  0  0
 12 13  2  0  0  0  0
 11 14  2  0  0  0  0
  8 15  1  0  0  0  0
  8 16  1  0  0  0  0
  1 17  1  0  0  0  0
  1 18  1  0  0  0  0
M  END
>  <INPUT>
DTXSID5075236

>  <FOUND_BY>
DSSTox_Substance_Id

>  <DTXSID>
DTXSID5075236

>  <PREFERRED_NAME>
1H,1H,5H-Perfluoropentyl acrylate

>  <CASRN>
376-84-1

>  <INCHIKEY>
WISUNKZXQSKYMR-UHFFFAOYSA-N

>  <IUPAC_NAME>
2,2,3,3,4,4,5,5-Octafluoropentyl prop-2-enoate

>  <SMILES>
FC(F)C(F)(F)C(F)(F)C(F)(F)COC(=O)C=C

>  <INCHI_STRING>
InChI=1S/C8H6F8O2/c1-2-4(17)18-3-6(11,12)8(15,16)7(13,14)5(9)10/h2,5H,1,3H2

>  <MOLECULAR_FORMULA>
C8H6F8O2

>  <AVERAGE_MASS>
286.121

>  <MONOISOTOPIC_MASS>
286.024004737

>  <MOL_FILE>
MOL_FILE

$$$$

  -INDIGO-02112615072D

 19 18  0  0  0  0  0  0  0  0999 V2000
    6.3112    0.8454    0.0000 F   0  0  0  0  0  0  0  0  0  0  0  0
    7.8512   -1.8219    0.0000 F   0  0  0  0  0  0  0  0  0  0  0  0
    7.6449    1.6154    0.0000 F   0  0  0  0  0  0  0  0  0  0  0  0
    9.1849   -1.0519    0.0000 F   0  0  0  0  0  0  0  0  0  0  0  0
    4.9775    0.0754    0.0000 F   0  0  0  0  0  0  0  0  0  0  0  0
    6.5175   -2.5919    0.0000 F   0  0  0  0  0  0  0  0  0  0  0  0
   10.5187   -0.2819    0.0000 F   0  0  0  0  0  0  0  0  0  0  0  0
    8.9785    2.3856    0.0000 F   0  0  0  0  0  0  0  0  0  0  0  0
    3.0800   -2.7983    0.0000 F   0  0  0  0  0  0  0  0  0  0  0  0
    3.6437   -0.6946    0.0000 F   0  0  0  0  0  0  0  0  0  0  0  0
    5.1837   -3.3619    0.0000 F   0  0  0  0  0  0  0  0  0  0  0  0
   11.0824    3.3619    0.0000 O   0  0  0  0  0  0  0  0  0  0  0  0
    7.0812   -0.4881    0.0000 C   0  0  0  0  0  0  0  0  0  0  0  0
    8.4149    0.2819    0.0000 C   0  0  0  0  0  0  0  0  0  0  0  0
    5.7475   -1.2581    0.0000 C   0  0  0  0  0  0  0  0  0  0  0  0
    9.7485    1.0519    0.0000 C   0  0  0  0  0  0  0  0  0  0  0  0
    4.4137   -2.0281    0.0000 C   0  0  0  0  0  0  0  0  0  0  0  0
   11.0824    1.8219    0.0000 C   0  0  0  0  0  0  0  0  0  0  0  0
   12.4161    1.0519    0.0000 C   0  0  0  0  0  0  0  0  0  0  0  0
  1 13  1  0  0  0  0
  2 13  1  0  0  0  0
  3 14  1  0  0  0  0
  4 14  1  0  0  0  0
  5 15  1  0  0  0  0
  6 15  1  0  0  0  0
  7 16  1  0  0  0  0
  8 16  1  0  0  0  0
  9 17  1  0  0  0  0
 10 17  1  0  0  0  0
 11 17  1  0  0  0  0
 12 18  2  0  0  0  0
 13 14  1  0  0  0  0
 13 15  1  0  0  0  0
 14 16  1  0  0  0  0
 15 17  1  0  0  0  0
 16 18  1  0  0  0  0
 18 19  1  0  0  0  0
M  END
>  <INPUT>
DTXSID00578936

>  <FOUND_BY>
DSSTox_Substance_Id

>  <DTXSID>
DTXSID00578936

>  <PREFERRED_NAME>
Methyl perfluoropentyl ketone

>  <CASRN>
2708-07-8

>  <INCHIKEY>
HWGNOHFZECDUBX-UHFFFAOYSA-N

>  <IUPAC_NAME>
3,3,4,4,5,5,6,6,7,7,7-Undecafluoroheptan-2-one

>  <SMILES>
CC(=O)C(F)(F)C(F)(F)C(F)(F)C(F)(F)C(F)(F)F

>  <INCHI_STRING>
InChI=1S/C7H3F11O/c1-2(19)3(8,9)4(10,11)5(12,13)6(14,15)7(16,17)18/h1H3

>  <MOLECULAR_FORMULA>
C7H3F11O

>  <AVERAGE_MASS>
312.082

>  <MONOISOTOPIC_MASS>
312.00082451

>  <MOL_FILE>
MOL_FILE

$$$$

  -INDIGO-02112615072D

 14 13  0  0  0  0  0  0  0  0999 V2000
    1.5400    0.0000    0.0000 C   0  0  0  0  0  0  0  0  0  0  0  0
    1.5400   -1.5400    0.0000 C   0  0  0  0  0  0  0  0  0  0  0  0
    1.5400   -3.0800    0.0000 C   0  0  0  0  0  0  0  0  0  0  0  0
    2.8737   -3.8500    0.0000 F   0  0  0  0  0  0  0  0  0  0  0  0
    0.2063   -3.8500    0.0000 F   0  0  0  0  0  0  0  0  0  0  0  0
    3.0800   -1.5400    0.0000 F   0  0  0  0  0  0  0  0  0  0  0  0
    0.0000   -1.5400    0.0000 F   0  0  0  0  0  0  0  0  0  0  0  0
    1.5400    1.5400    0.0000 C   0  0  0  0  0  0  0  0  0  0  0  0
    1.5400    3.0800    0.0000 C   0  0  0  0  0  0  0  0  0  0  0  0
    0.2063    3.8500    0.0000 O   0  0  0  0  0  0  0  0  0  0  0  0
    3.0800    1.5400    0.0000 F   0  0  0  0  0  0  0  0  0  0  0  0
    0.0000    1.5400    0.0000 F   0  0  0  0  0  0  0  0  0  0  0  0
    3.0800    0.0000    0.0000 F   0  0  0  0  0  0  0  0  0  0  0  0
    0.0000    0.0000    0.0000 F   0  0  0  0  0  0  0  0  0  0  0  0
  1  2  1  0  0  0  0
  2  3  1  0  0  0  0
  3  4  1  0  0  0  0
  3  5  1  0  0  0  0
  2  6  1  0  0  0  0
  2  7  1  0  0  0  0
  1  8  1  0  0  0  0
  8  9  1  0  0  0  0
  9 10  1  0  0  0  0
  8 11  1  0  0  0  0
  8 12  1  0  0  0  0
  1 13  1  0  0  0  0
  1 14  1  0  0  0  0
M  END
>  <INPUT>
DTXSID0059879

>  <FOUND_BY>
DSSTox_Substance_Id

>  <DTXSID>
DTXSID0059879

>  <PREFERRED_NAME>
1H,1H,5H-Perfluoropentanol

>  <CASRN>
355-80-6

>  <INCHIKEY>
JUGSKHLZINSXPQ-UHFFFAOYSA-N

>  <IUPAC_NAME>
2,2,3,3,4,4,5,5-Octafluoropentan-1-ol

>  <SMILES>
OCC(F)(F)C(F)(F)C(F)(F)C(F)F

>  <INCHI_STRING>
InChI=1S/C5H4F8O/c6-2(7)4(10,11)5(12,13)3(8,9)1-14/h2,14H,1H2

>  <MOLECULAR_FORMULA>
C5H4F8O

>  <AVERAGE_MASS>
232.073

>  <MONOISOTOPIC_MASS>
232.013440053

>  <MOL_FILE>
MOL_FILE

$$$$

  -INDIGO-02112615072D

 21 20  0  0  0  0  0  0  0  0999 V2000
    8.4149    1.5400    0.0000 F   0  0  0  0  0  0  0  0  0  0  0  0
    8.4149   -1.5400    0.0000 F   0  0  0  0  0  0  0  0  0  0  0  0
    9.9549    1.5400    0.0000 F   0  0  0  0  0  0  0  0  0  0  0  0
    9.9549   -1.5400    0.0000 F   0  0  0  0  0  0  0  0  0  0  0  0
    6.8749    1.5400    0.0000 F   0  0  0  0  0  0  0  0  0  0  0  0
    6.8749   -1.5400    0.0000 F   0  0  0  0  0  0  0  0  0  0  0  0
   11.4949    1.5400    0.0000 F   0  0  0  0  0  0  0  0  0  0  0  0
   11.4949   -1.5400    0.0000 F   0  0  0  0  0  0  0  0  0  0  0  0
    5.3349    1.5400    0.0000 F   0  0  0  0  0  0  0  0  0  0  0  0
    5.3349   -1.5400    0.0000 F   0  0  0  0  0  0  0  0  0  0  0  0
   13.8049    1.3337    0.0000 F   0  0  0  0  0  0  0  0  0  0  0  0
   13.8049   -1.3337    0.0000 F   0  0  0  0  0  0  0  0  0  0  0  0
    3.0249   -1.3337    0.0000 O   0  0  0  0  0  0  0  0  0  0  0  0
    3.0249    1.3337    0.0000 O   0  0  0  0  0  0  0  0  0  0  0  0
    8.4149    0.0000    0.0000 C   0  0  0  0  0  0  0  0  0  0  0  0
    9.9549    0.0000    0.0000 C   0  0  0  0  0  0  0  0  0  0  0  0
    6.8749    0.0000    0.0000 C   0  0  0  0  0  0  0  0  0  0  0  0
   11.4949    0.0000    0.0000 C   0  0  0  0  0  0  0  0  0  0  0  0
    5.3349    0.0000    0.0000 C   0  0  0  0  0  0  0  0  0  0  0  0
   13.0349    0.0000    0.0000 C   0  0  0  0  0  0  0  0  0  0  0  0
    3.7949    0.0000    0.0000 C   0  0  0  0  0  0  0  0  0  0  0  0
  1 15  1  0  0  0  0
  2 15  1  0  0  0  0
  3 16  1  0  0  0  0
  4 16  1  0  0  0  0
  5 17  1  0  0  0  0
  6 17  1  0  0  0  0
  7 18  1  0  0  0  0
  8 18  1  0  0  0  0
  9 19  1  0  0  0  0
 10 19  1  0  0  0  0
 11 20  1  0  0  0  0
 12 20  1  0  0  0  0
 13 21  1  0  0  0  0
 14 21  2  0  0  0  0
 15 16  1  0  0  0  0
 15 17  1  0  0  0  0
 16 18  1  0  0  0  0
 17 19  1  0  0  0  0
 18 20  1  0  0  0  0
 19 21  1  0  0  0  0
M  END
>  <INPUT>
DTXSID70165670

>  <FOUND_BY>
DSSTox_Substance_Id

>  <DTXSID>
DTXSID70165670

>  <PREFERRED_NAME>
7H-Perfluoroheptanoic acid

>  <CASRN>
1546-95-8

>  <INCHIKEY>
JZHDEEOTEUVLHR-UHFFFAOYSA-N

>  <IUPAC_NAME>
2,2,3,3,4,4,5,5,6,6,7,7-Dodecafluoroheptanoic acid

>  <SMILES>
OC(=O)C(F)(F)C(F)(F)C(F)(F)C(F)(F)C(F)(F)C(F)F

>  <INCHI_STRING>
InChI=1S/C7H2F12O2/c8-1(9)3(10,11)5(14,15)7(18,19)6(16,17)4(12,13)2(20)21/h1H,(H,20,21)


>  <MOLECULAR_FORMULA>
C7H2F12O2

>  <AVERAGE_MASS>
346.072

>  <MONOISOTOPIC_MASS>
345.98631726

>  <MOL_FILE>
MOL_FILE

$$$$

  -INDIGO-02112615072D

 18 17  0  0  0  0  0  0  0  0999 V2000
    8.1900    0.1032    0.0000 F   0  0  0  0  0  0  0  0  0  0  0  0
   10.8573   -1.4368    0.0000 F   0  0  0  0  0  0  0  0  0  0  0  0
    8.9600    1.4368    0.0000 F   0  0  0  0  0  0  0  0  0  0  0  0
   11.6273   -0.1032    0.0000 F   0  0  0  0  0  0  0  0  0  0  0  0
   12.6036    3.5405    0.0000 F   0  0  0  0  0  0  0  0  0  0  0  0
   12.6036    0.4605    0.0000 F   0  0  0  0  0  0  0  0  0  0  0  0
    7.2136   -0.4605    0.0000 F   0  0  0  0  0  0  0  0  0  0  0  0
    7.2136   -3.5405    0.0000 F   0  0  0  0  0  0  0  0  0  0  0  0
   11.0636    2.0005    0.0000 O   0  0  0  0  0  0  0  0  0  0  0  0
    8.7536   -2.0005    0.0000 O   0  0  0  0  0  0  0  0  0  0  0  0
   14.9136    3.3342    0.0000 O   0  0  0  0  0  0  0  0  0  0  0  0
    4.9036   -3.3342    0.0000 O   0  0  0  0  0  0  0  0  0  0  0  0
   10.2936    0.6668    0.0000 C   0  0  0  0  0  0  0  0  0  0  0  0
    9.5236   -0.6668    0.0000 C   0  0  0  0  0  0  0  0  0  0  0  0
   12.6036    2.0005    0.0000 C   0  0  0  0  0  0  0  0  0  0  0  0
    7.2136   -2.0005    0.0000 C   0  0  0  0  0  0  0  0  0  0  0  0
   14.1436    2.0005    0.0000 C   0  0  0  0  0  0  0  0  0  0  0  0
    5.6736   -2.0005    0.0000 C   0  0  0  0  0  0  0  0  0  0  0  0
  1 14  1  0  0  0  0
  2 14  1  0  0  0  0
  3 13  1  0  0  0  0
  4 13  1  0  0  0  0
  5 15  1  0  0  0  0
  6 15  1  0  0  0  0
  7 16  1  0  0  0  0
  8 16  1  0  0  0  0
  9 13  1  0  0  0  0
  9 15  1  0  0  0  0
 10 14  1  0  0  0  0
 10 16  1  0  0  0  0
 11 17  1  0  0  0  0
 12 18  1  0  0  0  0
 13 14  1  0  0  0  0
 15 17  1  0  0  0  0
 16 18  1  0  0  0  0
M  END
>  <INPUT>
DTXSID70381090

>  <FOUND_BY>
DSSTox_Substance_Id

>  <DTXSID>
DTXSID70381090

>  <PREFERRED_NAME>
1H,1H,8H,8H-Perfluoro-3,6-dioxaoctane-1,8-diol

>  <CASRN>
129301-42-4

>  <INCHIKEY>
CWIAFBQLWOMNFY-UHFFFAOYSA-N

>  <IUPAC_NAME>
2,2'-[(1,1,2,2-Tetrafluoroethane-1,2-diyl)bis(oxy)]bis(2,2-difluoroethan-1-ol)

>  <SMILES>
OCC(F)(F)OC(F)(F)C(F)(F)OC(F)(F)CO

>  <INCHI_STRING>
InChI=1S/C6H6F8O4/c7-3(8,1-15)17-5(11,12)6(13,14)18-4(9,10)2-16/h15-16H,1-2H2


>  <MOLECULAR_FORMULA>
C6H6F8O4

>  <AVERAGE_MASS>
294.097

>  <MONOISOTOPIC_MASS>
294.013833977

>  <MOL_FILE>
MOL_FILE

$$$$

  -INDIGO-02112615072D

 29 29  0  0  0  0  0  0  0  0999 V2000
    6.4811   -2.2139    0.0000 F   0  0  0  0  0  0  0  0  0  0  0  0
    6.4811   -0.6739    0.0000 C   0  0  0  0  0  0  0  0  0  0  0  0
    6.4811    0.8823    0.0000 F   0  0  0  0  0  0  0  0  0  0  0  0
    8.0213   -0.6739    0.0000 F   0  0  0  0  0  0  0  0  0  0  0  0
    4.9251   -0.6739    0.0000 C   0  0  0  0  0  0  0  0  0  0  0  0
    4.9251   -2.2139    0.0000 F   0  0  0  0  0  0  0  0  0  0  0  0
    4.9251    0.8823    0.0000 F   0  0  0  0  0  0  0  0  0  0  0  0
    3.3850   -0.6739    0.0000 C   0  0  0  0  0  0  0  0  0  0  0  0
    3.3850   -2.2139    0.0000 F   0  0  0  0  0  0  0  0  0  0  0  0
    3.3850    0.8823    0.0000 F   0  0  0  0  0  0  0  0  0  0  0  0
    1.8290   -0.6739    0.0000 C   0  0  0  0  0  0  0  0  0  0  0  0
    1.8290   -2.2139    0.0000 F   0  0  0  0  0  0  0  0  0  0  0  0
    1.8290    0.8823    0.0000 F   0  0  0  0  0  0  0  0  0  0  0  0
    0.2888   -0.6739    0.0000 C   0  0  0  0  0  0  0  0  0  0  0  0
    0.2888   -2.2139    0.0000 F   0  0  0  0  0  0  0  0  0  0  0  0
    0.2888    0.8823    0.0000 F   0  0  0  0  0  0  0  0  0  0  0  0
   -1.2674   -0.6739    0.0000 C   0  0  0  0  0  0  0  0  0  0  0  0
   -1.2674   -2.2139    0.0000 F   0  0  0  0  0  0  0  0  0  0  0  0
   -1.2674    0.8823    0.0000 F   0  0  0  0  0  0  0  0  0  0  0  0
   -2.8074   -0.6739    0.0000 C   0  0  0  0  0  0  0  0  0  0  0  0
   -2.8074   -2.2139    0.0000 F   0  0  0  0  0  0  0  0  0  0  0  0
   -2.8074    0.8823    0.0000 F   0  0  0  0  0  0  0  0  0  0  0  0
   -4.3636   -0.6739    0.0000 C   0  0  0  0  0  0  0  0  0  0  0  0
   -4.3636   -2.2139    0.0000 F   0  0  0  0  0  0  0  0  0  0  0  0
   -4.3636    0.8823    0.0000 F   0  0  0  0  0  0  0  0  0  0  0  0
   -5.9038   -0.6739    0.0000 C   0  0  0  0  0  0  0  0  0  0  0  0
   -6.6738    0.6739    0.0000 C   0  0  0  0  0  0  0  0  0  0  0  0
   -6.6738    2.2139    0.0000 C   0  0  0  0  0  0  0  0  0  0  0  0
   -8.0213    1.4439    0.0000 O   0  0  0  0  0  0  0  0  0  0  0  0
  1  2  1  0  0  0  0
  2  3  1  0  0  0  0
  2  4  1  0  0  0  0
  2  5  1  0  0  0  0
  5  6  1  0  0  0  0
  5  7  1  0  0  0  0
  5  8  1  0  0  0  0
  8  9  1  0  0  0  0
  8 10  1  0  0  0  0
  8 11  1  0  0  0  0
 11 12  1  0  0  0  0
 11 13  1  0  0  0  0
 11 14  1  0  0  0  0
 14 15  1  0  0  0  0
 14 16  1  0  0  0  0
 14 17  1  0  0  0  0
 17 18  1  0  0  0  0
 17 19  1  0  0  0  0
 17 20  1  0  0  0  0
 20 21  1  0  0  0  0
 20 22  1  0  0  0  0
 20 23  1  0  0  0  0
 23 24  1  0  0  0  0
 23 25  1  0  0  0  0
 23 26  1  0  0  0  0
 26 27  1  0  0  0  0
 27 28  1  0  0  0  0
 27 29  1  0  0  0  0
 28 29  1  0  0  0  0
M  END
>  <INPUT>
DTXSID50880415

>  <FOUND_BY>
DSSTox_Substance_Id

>  <DTXSID>
DTXSID50880415

>  <PREFERRED_NAME>
3-(Perfluorooctyl)-1,2-propenoxide

>  <CASRN>
38565-53-6

>  <INCHIKEY>
HMXSIEIEXLGIET-UHFFFAOYNA-N

>  <IUPAC_NAME>
2-(2,2,3,3,4,4,5,5,6,6,7,7,8,8,9,9,9-Heptadecafluorononyl)oxirane

>  <SMILES>
FC(F)(F)C(F)(F)C(F)(F)C(F)(F)C(F)(F)C(F)(F)C(F)(F)C(F)(F)CC1CO1

>  <INCHI_STRING>
InChI=1S/C11H5F17O/c12-4(13,1-3-2-29-3)5(14,15)6(16,17)7(18,19)8(20,21)9(22,23)10(24,25)11(26,27)28/h3H,1-2H2

>  <MOLECULAR_FORMULA>
C11H5F17O

>  <AVERAGE_MASS>
476.133

>  <MONOISOTOPIC_MASS>
476.006893552

>  <MOL_FILE>
MOL_FILE

$$$$

  -INDIGO-02112615072D

 15 14  0  0  0  0  0  0  0  0999 V2000
    2.3100   -1.3337    0.0000 O   0  0  0  0  0  0  0  0  0  0  0  0
    1.5400    0.0000    0.0000 C   0  0  0  0  0  0  0  0  0  0  0  0
    2.3100    1.3337    0.0000 C   0  0  0  0  0  0  0  0  0  0  0  0
    3.6437    0.5637    0.0000 F   0  0  0  0  0  0  0  0  0  0  0  0
    0.9763    2.1037    0.0000 F   0  0  0  0  0  0  0  0  0  0  0  0
    3.0800    2.6673    0.0000 C   0  0  0  0  0  0  0  0  0  0  0  0
    4.4137    1.8973    0.0000 F   0  0  0  0  0  0  0  0  0  0  0  0
    1.7463    3.4373    0.0000 F   0  0  0  0  0  0  0  0  0  0  0  0
    3.8500    4.0010    0.0000 C   0  0  0  0  0  0  0  0  0  0  0  0
    5.1837    3.2310    0.0000 F   0  0  0  0  0  0  0  0  0  0  0  0
    2.5163    4.7710    0.0000 F   0  0  0  0  0  0  0  0  0  0  0  0
    4.6200    5.3347    0.0000 C   0  0  0  0  0  0  0  0  0  0  0  0
    3.8500    6.6685    0.0000 O   0  0  0  0  0  0  0  0  0  0  0  0
    6.1600    5.3347    0.0000 Cl  0  0  0  0  0  0  0  0  0  0  0  0
    0.0000    0.0000    0.0000 Cl  0  0  0  0  0  0  0  0  0  0  0  0
  1  2  2  0  0  0  0
  2  3  1  0  0  0  0
  3  4  1  0  0  0  0
  3  5  1  0  0  0  0
  3  6  1  0  0  0  0
  6  7  1  0  0  0  0
  6  8  1  0  0  0  0
  6  9  1  0  0  0  0
  9 10  1  0  0  0  0
  9 11  1  0  0  0  0
  9 12  1  0  0  0  0
 12 13  2  0  0  0  0
 12 14  1  0  0  0  0
  2 15  1  0  0  0  0
M  END
>  <INPUT>
DTXSID0060985

>  <FOUND_BY>
DSSTox_Substance_Id

>  <DTXSID>
DTXSID0060985

>  <PREFERRED_NAME>
Hexafluoroglutaryl chloride

>  <CASRN>
678-77-3

>  <INCHIKEY>
QOLALWJWCONGMG-UHFFFAOYSA-N

>  <IUPAC_NAME>
Hexafluoropentanedioyl dichloride

>  <SMILES>
FC(F)(C(Cl)=O)C(F)(F)C(F)(F)C(Cl)=O

>  <INCHI_STRING>
InChI=1S/C5Cl2F6O2/c6-1(14)3(8,9)5(12,13)4(10,11)2(7)15

>  <MOLECULAR_FORMULA>
C5Cl2F6O2

>  <AVERAGE_MASS>
276.94

>  <MONOISOTOPIC_MASS>
275.9179536

>  <MOL_FILE>
MOL_FILE

$$$$

  -INDIGO-02112615072D

 11 10  0  0  0  0  0  0  0  0999 V2000
    1.5400    0.0000    0.0000 C   0  0  0  0  0  0  0  0  0  0  0  0
    1.5400   -1.5400    0.0000 C   0  0  0  0  0  0  0  0  0  0  0  0
    1.5400   -3.0800    0.0000 F   0  0  0  0  0  0  0  0  0  0  0  0
    3.0800   -1.5400    0.0000 F   0  0  0  0  0  0  0  0  0  0  0  0
    0.0000   -1.5400    0.0000 F   0  0  0  0  0  0  0  0  0  0  0  0
    1.5400    1.5400    0.0000 C   0  0  0  0  0  0  0  0  0  0  0  0
    2.8737    2.3100    0.0000 O   0  0  0  0  0  0  0  0  0  0  0  0
    2.8737    3.8500    0.0000 C   0  0  0  0  0  0  0  0  0  0  0  0
    0.2063    2.3100    0.0000 O   0  0  0  0  0  0  0  0  0  0  0  0
    3.0800    0.0000    0.0000 F   0  0  0  0  0  0  0  0  0  0  0  0
    0.0000    0.0000    0.0000 F   0  0  0  0  0  0  0  0  0  0  0  0
  1  2  1  0  0  0  0
  2  3  1  0  0  0  0
  2  4  1  0  0  0  0
  2  5  1  0  0  0  0
  1  6  1  0  0  0  0
  6  7  1  0  0  0  0
  7  8  1  0  0  0  0
  6  9  2  0  0  0  0
  1 10  1  0  0  0  0
  1 11  1  0  0  0  0
M  END
>  <INPUT>
DTXSID2059930

>  <FOUND_BY>
DSSTox_Substance_Id

>  <DTXSID>
DTXSID2059930

>  <PREFERRED_NAME>
Methyl pentafluoropropionate

>  <CASRN>
378-75-6

>  <INCHIKEY>
JMKJCPUVEMZGEC-UHFFFAOYSA-N

>  <IUPAC_NAME>
Methyl pentafluoropropanoate

>  <SMILES>
COC(=O)C(F)(F)C(F)(F)F

>  <INCHI_STRING>
InChI=1S/C4H3F5O2/c1-11-2(10)3(5,6)4(7,8)9/h1H3

>  <MOLECULAR_FORMULA>
C4H3F5O2

>  <AVERAGE_MASS>
178.058

>  <MONOISOTOPIC_MASS>
178.005320152

>  <MOL_FILE>
MOL_FILE

$$$$

  -INDIGO-02112615072D

 10  9  0  0  0  0  0  0  0  0999 V2000
    6.9300   -1.3337    0.0000 F   0  0  0  0  0  0  0  0  0  0  0  0
    5.3900   -1.3337    0.0000 C   0  0  0  0  0  0  0  0  0  0  0  0
    5.3900    0.2063    0.0000 F   0  0  0  0  0  0  0  0  0  0  0  0
    5.3900   -2.8737    0.0000 F   0  0  0  0  0  0  0  0  0  0  0  0
    3.8500   -1.3337    0.0000 C   0  0  0  0  0  0  0  0  0  0  0  0
    3.8500    0.2063    0.0000 F   0  0  0  0  0  0  0  0  0  0  0  0
    3.8500   -2.8737    0.0000 F   0  0  0  0  0  0  0  0  0  0  0  0
    2.3100   -1.3337    0.0000 C   0  0  0  0  0  0  0  0  0  0  0  0
    1.5400    0.0000    0.0000 C   0  0  0  0  0  0  0  0  0  0  0  0
    0.0000    0.0000    0.0000 O   0  0  0  0  0  0  0  0  0  0  0  0
  1  2  1  0  0  0  0
  2  3  1  0  0  0  0
  2  4  1  0  0  0  0
  2  5  1  0  0  0  0
  5  6  1  0  0  0  0
  5  7  1  0  0  0  0
  5  8  1  0  0  0  0
  8  9  1  0  0  0  0
  9 10  1  0  0  0  0
M  END
>  <INPUT>
DTXSID6068985

>  <FOUND_BY>
DSSTox_Substance_Id

>  <DTXSID>
DTXSID6068985

>  <PREFERRED_NAME>
Fluorotelomer alcohol 2:2

>  <CASRN>
54949-74-5

>  <INCHIKEY>
JPMHUDBOKDBBLG-UHFFFAOYSA-N

>  <IUPAC_NAME>
3,3,4,4,4-Pentafluorobutan-1-ol

>  <SMILES>
OCCC(F)(F)C(F)(F)F

>  <INCHI_STRING>
InChI=1S/C4H5F5O/c5-3(6,1-2-10)4(7,8)9/h10H,1-2H2


>  <MOLECULAR_FORMULA>
C4H5F5O

>  <AVERAGE_MASS>
164.075

>  <MONOISOTOPIC_MASS>
164.026055596

>  <MOL_FILE>
MOL_FILE

$$$$

  -INDIGO-02112615072D

 30 29  0  0  0  0  0  0  0  0999 V2000
   12.4729    1.4368    0.0000 F   0  0  0  0  0  0  0  0  0  0  0  0
   14.0129   -1.2305    0.0000 F   0  0  0  0  0  0  0  0  0  0  0  0
   11.1391    0.6668    0.0000 F   0  0  0  0  0  0  0  0  0  0  0  0
   12.6793   -2.0005    0.0000 F   0  0  0  0  0  0  0  0  0  0  0  0
   13.8066    2.2070    0.0000 F   0  0  0  0  0  0  0  0  0  0  0  0
   15.3466   -0.4605    0.0000 F   0  0  0  0  0  0  0  0  0  0  0  0
    9.8056   -0.1032    0.0000 F   0  0  0  0  0  0  0  0  0  0  0  0
   11.3456   -2.7705    0.0000 F   0  0  0  0  0  0  0  0  0  0  0  0
   16.6803    0.3095    0.0000 F   0  0  0  0  0  0  0  0  0  0  0  0
   15.1403    2.9770    0.0000 F   0  0  0  0  0  0  0  0  0  0  0  0
    8.4717   -0.8732    0.0000 F   0  0  0  0  0  0  0  0  0  0  0  0
   10.0117   -3.5405    0.0000 F   0  0  0  0  0  0  0  0  0  0  0  0
   18.0141    1.0795    0.0000 F   0  0  0  0  0  0  0  0  0  0  0  0
   16.4741    3.7470    0.0000 F   0  0  0  0  0  0  0  0  0  0  0  0
   19.9114    3.9532    0.0000 F   0  0  0  0  0  0  0  0  0  0  0  0
   19.3478    1.8495    0.0000 F   0  0  0  0  0  0  0  0  0  0  0  0
   17.8076    4.5170    0.0000 F   0  0  0  0  0  0  0  0  0  0  0  0
    3.9069   -2.2070    0.0000 O   0  0  0  0  0  0  0  0  0  0  0  0
    5.2407   -4.5170    0.0000 O   0  0  0  0  0  0  0  0  0  0  0  0
   13.2429    0.1032    0.0000 C   0  0  0  0  0  0  0  0  0  0  0  0
   11.9091   -0.6668    0.0000 C   0  0  0  0  0  0  0  0  0  0  0  0
   14.5766    0.8732    0.0000 C   0  0  0  0  0  0  0  0  0  0  0  0
   10.5756   -1.4368    0.0000 C   0  0  0  0  0  0  0  0  0  0  0  0
   15.9103    1.6432    0.0000 C   0  0  0  0  0  0  0  0  0  0  0  0
    9.2417   -2.2070    0.0000 C   0  0  0  0  0  0  0  0  0  0  0  0
   17.2441    2.4132    0.0000 C   0  0  0  0  0  0  0  0  0  0  0  0
    7.9081   -2.9770    0.0000 C   0  0  0  0  0  0  0  0  0  0  0  0
    6.5744   -2.2070    0.0000 C   0  0  0  0  0  0  0  0  0  0  0  0
   18.5778    3.1832    0.0000 C   0  0  0  0  0  0  0  0  0  0  0  0
    5.2407   -2.9770    0.0000 C   0  0  0  0  0  0  0  0  0  0  0  0
  1 20  1  0  0  0  0
  2 20  1  0  0  0  0
  3 21  1  0  0  0  0
  4 21  1  0  0  0  0
  5 22  1  0  0  0  0
  6 22  1  0  0  0  0
  7 23  1  0  0  0  0
  8 23  1  0  0  0  0
  9 24  1  0  0  0  0
 10 24  1  0  0  0  0
 11 25  1  0  0  0  0
 12 25  1  0  0  0  0
 13 26  1  0  0  0  0
 14 26  1  0  0  0  0
 15 29  1  0  0  0  0
 16 29  1  0  0  0  0
 17 29  1  0  0  0  0
 18 30  1  0  0  0  0
 19 30  2  0  0  0  0
 20 21  1  0  0  0  0
 20 22  1  0  0  0  0
 21 23  1  0  0  0  0
 22 24  1  0  0  0  0
 23 25  1  0  0  0  0
 24 26  1  0  0  0  0
 25 27  1  0  0  0  0
 26 29  1  0  0  0  0
 27 28  1  0  0  0  0
 28 30  1  0  0  0  0
M  END
>  <INPUT>
DTXSID50188165

>  <FOUND_BY>
DSSTox_Substance_Id

>  <DTXSID>
DTXSID50188165

>  <PREFERRED_NAME>
8:3 Fluorotelomer carboxylic acid

>  <CASRN>
34598-33-9

>  <INCHIKEY>
JZRCRCFPVAXHHQ-UHFFFAOYSA-N

>  <IUPAC_NAME>
4,4,5,5,6,6,7,7,8,8,9,9,10,10,11,11,11-Heptadecafluoroundecanoic acid

>  <SMILES>
OC(=O)CCC(F)(F)C(F)(F)C(F)(F)C(F)(F)C(F)(F)C(F)(F)C(F)(F)C(F)(F)F

>  <INCHI_STRING>
InChI=1S/C11H5F17O2/c12-4(13,2-1-3(29)30)5(14,15)6(16,17)7(18,19)8(20,21)9(22,23)10(24,25)11(26,27)28/h1-2H2,(H,29,30)


>  <MOLECULAR_FORMULA>
C11H5F17O2

>  <AVERAGE_MASS>
492.132

>  <MONOISOTOPIC_MASS>
492.001808172

>  <MOL_FILE>
MOL_FILE

$$$$

  -INDIGO-02112615072D

 30 29  0  0  0  0  0  0  0  0999 V2000
    9.1725    3.4111    0.0000 F   0  0  0  0  0  0  0  0  0  0  0  0
   11.8399    1.8711    0.0000 F   0  0  0  0  0  0  0  0  0  0  0  0
    8.4025    2.0775    0.0000 F   0  0  0  0  0  0  0  0  0  0  0  0
   11.0699    0.5375    0.0000 F   0  0  0  0  0  0  0  0  0  0  0  0
   12.6099    3.2048    0.0000 F   0  0  0  0  0  0  0  0  0  0  0  0
    7.6325    0.7438    0.0000 F   0  0  0  0  0  0  0  0  0  0  0  0
   10.2999   -0.7962    0.0000 F   0  0  0  0  0  0  0  0  0  0  0  0
    6.8625   -0.5899    0.0000 F   0  0  0  0  0  0  0  0  0  0  0  0
    9.5299   -2.1299    0.0000 F   0  0  0  0  0  0  0  0  0  0  0  0
   12.8162    6.6422    0.0000 F   0  0  0  0  0  0  0  0  0  0  0  0
   10.7125    6.0785    0.0000 F   0  0  0  0  0  0  0  0  0  0  0  0
   13.3799    4.5385    0.0000 F   0  0  0  0  0  0  0  0  0  0  0  0
    8.6088    5.5148    0.0000 F   0  0  0  0  0  0  0  0  0  0  0  0
    9.7815    6.2764    0.0000 F   0  0  0  0  0  0  0  0  0  0  0  0
    8.5356    4.1184    0.0000 F   0  0  0  0  0  0  0  0  0  0  0  0
    7.4262   -5.3609    0.0000 O   0  0  0  0  0  0  0  0  0  0  0  0
    9.7362   -6.6946    0.0000 O   0  0  0  0  0  0  0  0  0  0  0  0
   10.5062    2.6411    0.0000 C   0  0  0  0  0  0  0  0  0  0  0  0
    9.7362    1.3075    0.0000 C   0  0  0  0  0  0  0  0  0  0  0  0
   11.2762    3.9748    0.0000 C   0  0  0  0  0  0  0  0  0  0  0  0
    8.9662   -0.0262    0.0000 C   0  0  0  0  0  0  0  0  0  0  0  0
    8.1962   -1.3599    0.0000 C   0  0  0  0  0  0  0  0  0  0  0  0
    7.4262   -2.6936    0.0000 C   0  0  0  0  0  0  0  0  0  0  0  0
   12.0462    5.3085    0.0000 C   0  0  0  0  0  0  0  0  0  0  0  0
    9.9425    4.7448    0.0000 C   0  0  0  0  0  0  0  0  0  0  0  0
    8.1962   -4.0273    0.0000 C   0  0  0  0  0  0  0  0  0  0  0  0
    8.1962   -6.6946    0.0000 C   0  0  0  0  0  0  0  0  0  0  0  0
    7.4262   -8.0283    0.0000 C   0  0  0  0  0  0  0  0  0  0  0  0
    8.1962   -9.3620    0.0000 C   0  0  0  0  0  0  0  0  0  0  0  0
    5.8862   -8.0283    0.0000 C   0  0  0  0  0  0  0  0  0  0  0  0
  1 18  1  0  0  0  0
  2 18  1  0  0  0  0
  3 19  1  0  0  0  0
  4 19  1  0  0  0  0
  5 20  1  0  0  0  0
  6 21  1  0  0  0  0
  7 21  1  0  0  0  0
  8 22  1  0  0  0  0
  9 22  1  0  0  0  0
 10 24  1  0  0  0  0
 11 24  1  0  0  0  0
 12 24  1  0  0  0  0
 13 25  1  0  0  0  0
 14 25  1  0  0  0  0
 15 25  1  0  0  0  0
 16 26  1  0  0  0  0
 16 27  1  0  0  0  0
 17 27  2  0  0  0  0
 18 19  1  0  0  0  0
 18 20  1  0  0  0  0
 19 21  1  0  0  0  0
 20 24  1  0  0  0  0
 20 25  1  0  0  0  0
 21 22  1  0  0  0  0
 22 23  1  0  0  0  0
 23 26  1  0  0  0  0
 27 28  1  0  0  0  0
 28 29  1  0  0  0  0
 28 30  2  0  0  0  0
M  END
>  <INPUT>
DTXSID60379901

>  <FOUND_BY>
DSSTox_Substance_Id

>  <DTXSID>
DTXSID60379901

>  <PREFERRED_NAME>
(Perfluoro-5-methylhexyl)ethyl 2-methylprop-2-enoate

>  <CASRN>
50836-66-3

>  <INCHIKEY>
SAIYGCOTLRCBJP-UHFFFAOYSA-N

>  <IUPAC_NAME>
3,3,4,4,5,5,6,6,7,8,8,8-Dodecafluoro-7-(trifluoromethyl)octyl 2-methylprop-2-enoate

>  <SMILES>
CC(=C)C(=O)OCCC(F)(F)C(F)(F)C(F)(F)C(F)(F)C(F)(C(F)(F)F)C(F)(F)F

>  <INCHI_STRING>
InChI=1S/C13H9F15O2/c1-5(2)6(29)30-4-3-7(14,15)9(17,18)11(21,22)10(19,20)8(16,12(23,24)25)13(26,27)28/h1,3-4H2,2H3


>  <MOLECULAR_FORMULA>
C13H9F15O2

>  <AVERAGE_MASS>
482.189

>  <MONOISOTOPIC_MASS>
482.036301975

>  <MOL_FILE>
MOL_FILE

$$$$

  -INDIGO-02112615072D

 10  9  0  0  0  0  0  0  0  0999 V2000
    0.2063   -3.8500    0.0000 O   0  0  0  0  0  0  0  0  0  0  0  0
    1.5400   -3.0800    0.0000 C   0  0  0  0  0  0  0  0  0  0  0  0
    2.8737   -3.8500    0.0000 N   0  0  0  0  0  0  0  0  0  0  0  0
    1.5400   -1.5400    0.0000 C   0  0  0  0  0  0  0  0  0  0  0  0
    3.0800   -1.5400    0.0000 F   0  0  0  0  0  0  0  0  0  0  0  0
    0.0000   -1.5400    0.0000 F   0  0  0  0  0  0  0  0  0  0  0  0
    1.5400    0.0000    0.0000 C   0  0  0  0  0  0  0  0  0  0  0  0
    1.5400    1.5400    0.0000 F   0  0  0  0  0  0  0  0  0  0  0  0
    3.0800    0.0000    0.0000 F   0  0  0  0  0  0  0  0  0  0  0  0
    0.0000    0.0000    0.0000 F   0  0  0  0  0  0  0  0  0  0  0  0
  1  2  2  0  0  0  0
  2  3  1  0  0  0  0
  2  4  1  0  0  0  0
  4  5  1  0  0  0  0
  4  6  1  0  0  0  0
  4  7  1  0  0  0  0
  7  8  1  0  0  0  0
  7  9  1  0  0  0  0
  7 10  1  0  0  0  0
M  END
>  <INPUT>
DTXSID0059871

>  <FOUND_BY>
DSSTox_Substance_Id

>  <DTXSID>
DTXSID0059871

>  <PREFERRED_NAME>
Perfluoropropanamide

>  <CASRN>
354-76-7

>  <INCHIKEY>
KQTOYEUYHXUEDB-UHFFFAOYSA-N

>  <IUPAC_NAME>
2,2,3,3,3-Pentafluoropropanamide

>  <SMILES>
NC(=O)C(F)(F)C(F)(F)F

>  <INCHI_STRING>
InChI=1S/C3H2F5NO/c4-2(5,1(9)10)3(6,7)8/h(H2,9,10)


>  <MOLECULAR_FORMULA>
C3H2F5NO

>  <AVERAGE_MASS>
163.047

>  <MONOISOTOPIC_MASS>
163.005654503

>  <MOL_FILE>
MOL_FILE

$$$$

  -INDIGO-02112615072D

 27 26  0  0  0  0  0  0  0  0999 V2000
    9.8056    0.9486    0.0000 F   0  0  0  0  0  0  0  0  0  0  0  0
   11.3456   -1.7186    0.0000 F   0  0  0  0  0  0  0  0  0  0  0  0
   11.1391    1.7186    0.0000 F   0  0  0  0  0  0  0  0  0  0  0  0
   12.6793   -0.9486    0.0000 F   0  0  0  0  0  0  0  0  0  0  0  0
    8.4717    0.1786    0.0000 F   0  0  0  0  0  0  0  0  0  0  0  0
   10.0117   -2.4886    0.0000 F   0  0  0  0  0  0  0  0  0  0  0  0
   14.0129   -0.1786    0.0000 F   0  0  0  0  0  0  0  0  0  0  0  0
   12.4729    2.4886    0.0000 F   0  0  0  0  0  0  0  0  0  0  0  0
    7.1381   -0.5914    0.0000 F   0  0  0  0  0  0  0  0  0  0  0  0
    8.6781   -3.2586    0.0000 F   0  0  0  0  0  0  0  0  0  0  0  0
   15.3466    0.5914    0.0000 F   0  0  0  0  0  0  0  0  0  0  0  0
   13.8066    3.2586    0.0000 F   0  0  0  0  0  0  0  0  0  0  0  0
    5.8044   -1.3614    0.0000 F   0  0  0  0  0  0  0  0  0  0  0  0
    7.3444   -4.0286    0.0000 F   0  0  0  0  0  0  0  0  0  0  0  0
   17.2441    3.4651    0.0000 F   0  0  0  0  0  0  0  0  0  0  0  0
   16.6803    1.3614    0.0000 F   0  0  0  0  0  0  0  0  0  0  0  0
   15.1403    4.0286    0.0000 F   0  0  0  0  0  0  0  0  0  0  0  0
    3.9069   -2.6951    0.0000 O   0  0  0  0  0  0  0  0  0  0  0  0
   10.5756   -0.3851    0.0000 C   0  0  0  0  0  0  0  0  0  0  0  0
   11.9091    0.3851    0.0000 C   0  0  0  0  0  0  0  0  0  0  0  0
    9.2417   -1.1551    0.0000 C   0  0  0  0  0  0  0  0  0  0  0  0
   13.2429    1.1551    0.0000 C   0  0  0  0  0  0  0  0  0  0  0  0
    7.9081   -1.9251    0.0000 C   0  0  0  0  0  0  0  0  0  0  0  0
   14.5766    1.9251    0.0000 C   0  0  0  0  0  0  0  0  0  0  0  0
    6.5744   -2.6951    0.0000 C   0  0  0  0  0  0  0  0  0  0  0  0
   15.9103    2.6951    0.0000 C   0  0  0  0  0  0  0  0  0  0  0  0
    5.2407   -3.4651    0.0000 C   0  0  0  0  0  0  0  0  0  0  0  0
  1 19  1  0  0  0  0
  2 19  1  0  0  0  0
  3 20  1  0  0  0  0
  4 20  1  0  0  0  0
  5 21  1  0  0  0  0
  6 21  1  0  0  0  0
  7 22  1  0  0  0  0
  8 22  1  0  0  0  0
  9 23  1  0  0  0  0
 10 23  1  0  0  0  0
 11 24  1  0  0  0  0
 12 24  1  0  0  0  0
 13 25  1  0  0  0  0
 14 25  1  0  0  0  0
 15 26  1  0  0  0  0
 16 26  1  0  0  0  0
 17 26  1  0  0  0  0
 18 27  1  0  0  0  0
 19 20  1  0  0  0  0
 19 21  1  0  0  0  0
 20 22  1  0  0  0  0
 21 23  1  0  0  0  0
 22 24  1  0  0  0  0
 23 25  1  0  0  0  0
 24 26  1  0  0  0  0
 25 27  1  0  0  0  0
M  END
>  <INPUT>
DTXSID80336475

>  <FOUND_BY>
DSSTox_Substance_Id

>  <DTXSID>
DTXSID80336475

>  <PREFERRED_NAME>
8:1 Fluorotelomer alcohol

>  <CASRN>
423-56-3

>  <INCHIKEY>
BSXJTDJJVULBTQ-UHFFFAOYSA-N

>  <IUPAC_NAME>
2,2,3,3,4,4,5,5,6,6,7,7,8,8,9,9,9-Heptadecafluorononan-1-ol

>  <SMILES>
OCC(F)(F)C(F)(F)C(F)(F)C(F)(F)C(F)(F)C(F)(F)C(F)(F)C(F)(F)F

>  <INCHI_STRING>
InChI=1S/C9H3F17O/c10-2(11,1-27)3(12,13)4(14,15)5(16,17)6(18,19)7(20,21)8(22,23)9(24,25)26/h27H,1H2

>  <MOLECULAR_FORMULA>
C9H3F17O

>  <AVERAGE_MASS>
450.095

>  <MONOISOTOPIC_MASS>
449.991243488

>  <MOL_FILE>
MOL_FILE

$$$$

  -INDIGO-02112615072D

 30 29  0  0  0  0  0  0  0  0999 V2000
    0.7702   -2.4886    0.0000 F   0  0  0  0  0  0  0  0  0  0  0  0
   -0.7700    0.1786    0.0000 F   0  0  0  0  0  0  0  0  0  0  0  0
    2.1037   -1.7186    0.0000 F   0  0  0  0  0  0  0  0  0  0  0  0
    0.5637    0.9486    0.0000 F   0  0  0  0  0  0  0  0  0  0  0  0
   -0.5635   -3.2586    0.0000 F   0  0  0  0  0  0  0  0  0  0  0  0
   -2.1035   -0.5914    0.0000 F   0  0  0  0  0  0  0  0  0  0  0  0
    3.4375   -0.9486    0.0000 F   0  0  0  0  0  0  0  0  0  0  0  0
    1.8975    1.7186    0.0000 F   0  0  0  0  0  0  0  0  0  0  0  0
   -3.4375   -1.3614    0.0000 F   0  0  0  0  0  0  0  0  0  0  0  0
   -1.8975   -4.0286    0.0000 F   0  0  0  0  0  0  0  0  0  0  0  0
    3.2312    2.4886    0.0000 F   0  0  0  0  0  0  0  0  0  0  0  0
    4.7712   -0.1786    0.0000 F   0  0  0  0  0  0  0  0  0  0  0  0
    4.5649    3.2586    0.0000 F   0  0  0  0  0  0  0  0  0  0  0  0
    6.1049    0.5914    0.0000 F   0  0  0  0  0  0  0  0  0  0  0  0
    8.0022    3.4651    0.0000 F   0  0  0  0  0  0  0  0  0  0  0  0
    7.4387    1.3614    0.0000 F   0  0  0  0  0  0  0  0  0  0  0  0
    5.8985    4.0286    0.0000 F   0  0  0  0  0  0  0  0  0  0  0  0
   -5.3347   -1.1551    0.0000 O   0  0  0  0  0  0  0  0  0  0  0  0
   -8.0022   -2.6951    0.0000 O   0  0  0  0  0  0  0  0  0  0  0  0
    0.0000   -1.1551    0.0000 C   0  0  0  0  0  0  0  0  0  0  0  0
    1.3337   -0.3851    0.0000 C   0  0  0  0  0  0  0  0  0  0  0  0
   -1.3335   -1.9251    0.0000 C   0  0  0  0  0  0  0  0  0  0  0  0
    2.6675    0.3851    0.0000 C   0  0  0  0  0  0  0  0  0  0  0  0
   -2.6675   -2.6951    0.0000 C   0  0  0  0  0  0  0  0  0  0  0  0
    4.0012    1.1551    0.0000 C   0  0  0  0  0  0  0  0  0  0  0  0
   -4.0010   -3.4651    0.0000 C   0  0  0  0  0  0  0  0  0  0  0  0
    5.3349    1.9251    0.0000 C   0  0  0  0  0  0  0  0  0  0  0  0
   -5.3347   -2.6951    0.0000 C   0  0  0  0  0  0  0  0  0  0  0  0
    6.6687    2.6951    0.0000 C   0  0  0  0  0  0  0  0  0  0  0  0
   -6.6685   -3.4651    0.0000 C   0  0  0  0  0  0  0  0  0  0  0  0
  1 20  1  0  0  0  0
  2 20  1  0  0  0  0
  3 21  1  0  0  0  0
  4 21  1  0  0  0  0
  5 22  1  0  0  0  0
  6 22  1  0  0  0  0
  7 23  1  0  0  0  0
  8 23  1  0  0  0  0
  9 24  1  0  0  0  0
 10 24  1  0  0  0  0
 11 25  1  0  0  0  0
 12 25  1  0  0  0  0
 13 27  1  0  0  0  0
 14 27  1  0  0  0  0
 15 29  1  0  0  0  0
 16 29  1  0  0  0  0
 17 29  1  0  0  0  0
 18 28  1  0  0  0  0
 19 30  1  0  0  0  0
 20 21  1  0  0  0  0
 20 22  1  0  0  0  0
 21 23  1  0  0  0  0
 22 24  1  0  0  0  0
 23 25  1  0  0  0  0
 24 26  1  0  0  0  0
 25 27  1  0  0  0  0
 26 28  1  0  0  0  0
 27 29  1  0  0  0  0
 28 30  1  0  0  0  0
M  END
>  <INPUT>
DTXSID80881157

>  <FOUND_BY>
DSSTox_Substance_Id

>  <DTXSID>
DTXSID80881157

>  <PREFERRED_NAME>
1-(Perfluorofluorooctyl)propane-2,3-diol

>  <CASRN>
94159-84-9

>  <INCHIKEY>
CGRIOEGIXRPCJU-UHFFFAOYNA-N

>  <IUPAC_NAME>
4,4,5,5,6,6,7,7,8,8,9,9,10,10,11,11,11-Heptadecafluoroundecane-1,2-diol

>  <SMILES>
OCC(O)CC(F)(F)C(F)(F)C(F)(F)C(F)(F)C(F)(F)C(F)(F)C(F)(F)C(F)(F)F

>  <INCHI_STRING>
InChI=1S/C11H7F17O2/c12-4(13,1-3(30)2-29)5(14,15)6(16,17)7(18,19)8(20,21)9(22,23)10(24,25)11(26,27)28/h3,29-30H,1-2H2

>  <MOLECULAR_FORMULA>
C11H7F17O2

>  <AVERAGE_MASS>
494.148

>  <MONOISOTOPIC_MASS>
494.017458236

>  <MOL_FILE>
MOL_FILE

$$$$

  -INDIGO-02112615072D

 16 15  0  0  0  0  0  0  0  0999 V2000
    0.7700    4.0010    0.0000 C   0  0  0  0  0  0  0  0  0  0  0  0
    1.5400    2.6673    0.0000 C   0  0  0  0  0  0  0  0  0  0  0  0
    2.3100    1.3337    0.0000 O   0  0  0  0  0  0  0  0  0  0  0  0
    1.5400    0.0000    0.0000 C   0  0  0  0  0  0  0  0  0  0  0  0
    0.0000    0.0000    0.0000 C   0  0  0  0  0  0  0  0  0  0  0  0
   -0.7700   -1.3337    0.0000 F   0  0  0  0  0  0  0  0  0  0  0  0
   -0.7700    1.3337    0.0000 F   0  0  0  0  0  0  0  0  0  0  0  0
    2.3100   -1.3337    0.0000 F   0  0  0  0  0  0  0  0  0  0  0  0
    2.8737    3.4373    0.0000 F   0  0  0  0  0  0  0  0  0  0  0  0
    0.2063    1.8973    0.0000 F   0  0  0  0  0  0  0  0  0  0  0  0
    0.0000    5.3347    0.0000 C   0  0  0  0  0  0  0  0  0  0  0  0
   -0.7700    6.6685    0.0000 F   0  0  0  0  0  0  0  0  0  0  0  0
    1.3337    6.1047    0.0000 F   0  0  0  0  0  0  0  0  0  0  0  0
   -1.3337    4.5647    0.0000 F   0  0  0  0  0  0  0  0  0  0  0  0
    2.1037    4.7710    0.0000 F   0  0  0  0  0  0  0  0  0  0  0  0
   -0.5637    3.2310    0.0000 F   0  0  0  0  0  0  0  0  0  0  0  0
  1  2  1  0  0  0  0
  2  3  1  0  0  0  0
  3  4  1  0  0  0  0
  4  5  2  0  0  0  0
  5  6  1  0  0  0  0
  5  7  1  0  0  0  0
  4  8  1  0  0  0  0
  2  9  1  0  0  0  0
  2 10  1  0  0  0  0
  1 11  1  0  0  0  0
 11 12  1  0  0  0  0
 11 13  1  0  0  0  0
 11 14  1  0  0  0  0
  1 15  1  0  0  0  0
  1 16  1  0  0  0  0
M  END
>  <INPUT>
DTXSID0061826

>  <FOUND_BY>
DSSTox_Substance_Id

>  <DTXSID>
DTXSID0061826

>  <PREFERRED_NAME>
Perfluoropropyl trifluorovinyl ether

>  <CASRN>
1623-05-8

>  <INCHIKEY>
KHXKESCWFMPTFT-UHFFFAOYSA-N

>  <IUPAC_NAME>
1,1,1,2,2,3,3-Heptafluoro-3-[(trifluoroethenyl)oxy]propane

>  <SMILES>
FC(F)=C(F)OC(F)(F)C(F)(F)C(F)(F)F

>  <INCHI_STRING>
InChI=1S/C5F10O/c6-1(7)2(8)16-5(14,15)3(9,10)4(11,12)13


>  <MOLECULAR_FORMULA>
C5F10O

>  <AVERAGE_MASS>
266.038

>  <MONOISOTOPIC_MASS>
265.97894625

>  <MOL_FILE>
MOL_FILE

$$$$

  -INDIGO-02112615072D

 24 23  0  0  0  0  0  0  0  0999 V2000
    6.4770   -1.9251    0.0000 F   0  0  0  0  0  0  0  0  0  0  0  0
    6.7732    1.6955    0.0000 F   0  0  0  0  0  0  0  0  0  0  0  0
    7.8107   -1.1551    0.0000 F   0  0  0  0  0  0  0  0  0  0  0  0
    9.1444   -0.3851    0.0000 F   0  0  0  0  0  0  0  0  0  0  0  0
    7.6044    2.2826    0.0000 F   0  0  0  0  0  0  0  0  0  0  0  0
    4.1670   -3.2586    0.0000 F   0  0  0  0  0  0  0  0  0  0  0  0
    3.3475    1.3884    0.0000 F   0  0  0  0  0  0  0  0  0  0  0  0
    3.0800   -0.1281    0.0000 F   0  0  0  0  0  0  0  0  0  0  0  0
    5.5171    1.5785    0.0000 F   0  0  0  0  0  0  0  0  0  0  0  0
    3.6032   -1.1551    0.0000 F   0  0  0  0  0  0  0  0  0  0  0  0
    5.7071   -3.2586    0.0000 F   0  0  0  0  0  0  0  0  0  0  0  0
   12.3756    1.7186    0.0000 O   0  0  0  0  0  0  0  0  0  0  0  0
   13.7092   -0.5914    0.0000 O   0  0  0  0  0  0  0  0  0  0  0  0
    5.7070   -0.5914    0.0000 C   0  0  0  0  0  0  0  0  0  0  0  0
    7.0407    0.1786    0.0000 C   0  0  0  0  0  0  0  0  0  0  0  0
    8.3744    0.9486    0.0000 C   0  0  0  0  0  0  0  0  0  0  0  0
    9.7080    1.7186    0.0000 C   0  0  0  0  0  0  0  0  0  0  0  0
    4.9370   -1.9251    0.0000 C   0  0  0  0  0  0  0  0  0  0  0  0
    4.5272    0.3985    0.0000 C   0  0  0  0  0  0  0  0  0  0  0  0
   11.0417    0.9486    0.0000 C   0  0  0  0  0  0  0  0  0  0  0  0
   13.7092    0.9486    0.0000 C   0  0  0  0  0  0  0  0  0  0  0  0
   15.0429    1.7186    0.0000 C   0  0  0  0  0  0  0  0  0  0  0  0
   16.3766    0.9486    0.0000 C   0  0  0  0  0  0  0  0  0  0  0  0
   15.0429    3.2586    0.0000 C   0  0  0  0  0  0  0  0  0  0  0  0
  1 14  1  0  0  0  0
  2 15  1  0  0  0  0
  3 15  1  0  0  0  0
  4 16  1  0  0  0  0
  5 16  1  0  0  0  0
  6 18  1  0  0  0  0
  7 19  1  0  0  0  0
  8 19  1  0  0  0  0
  9 19  1  0  0  0  0
 10 18  1  0  0  0  0
 11 18  1  0  0  0  0
 12 20  1  0  0  0  0
 12 21  1  0  0  0  0
 13 21  2  0  0  0  0
 14 15  1  0  0  0  0
 14 18  1  0  0  0  0
 14 19  1  0  0  0  0
 15 16  1  0  0  0  0
 16 17  1  0  0  0  0
 17 20  1  0  0  0  0
 21 22  1  0  0  0  0
 22 23  1  0  0  0  0
 22 24  2  0  0  0  0
M  END
>  <INPUT>
DTXSID50379879

>  <FOUND_BY>
DSSTox_Substance_Id

>  <DTXSID>
DTXSID50379879

>  <PREFERRED_NAME>
2-(Perfluoro-3-methylbutyl)ethyl methacrylate

>  <CASRN>
65195-44-0

>  <INCHIKEY>
JTEKNLSWXJADLG-UHFFFAOYSA-N

>  <IUPAC_NAME>
3,3,4,4,5,6,6,6-Octafluoro-5-(trifluoromethyl)hexyl 2-methylprop-2-enoate

>  <SMILES>
CC(=C)C(=O)OCCC(F)(F)C(F)(F)C(F)(C(F)(F)F)C(F)(F)F

>  <INCHI_STRING>
InChI=1S/C11H9F11O2/c1-5(2)6(23)24-4-3-7(12,13)9(15,16)8(14,10(17,18)19)11(20,21)22/h1,3-4H2,2H3

>  <MOLECULAR_FORMULA>
C11H9F11O2

>  <AVERAGE_MASS>
382.173

>  <MONOISOTOPIC_MASS>
382.042689323

>  <MOL_FILE>
MOL_FILE

$$$$

  -INDIGO-02112615072D

 14 13  0  0  0  0  0  0  0  0999 V2000
    6.4717    1.5401    0.0000 F   0  0  0  0  0  0  0  0  0  0  0  0
    6.4717   -1.5401    0.0000 F   0  0  0  0  0  0  0  0  0  0  0  0
    8.0119    1.5401    0.0000 F   0  0  0  0  0  0  0  0  0  0  0  0
    8.0119   -1.5401    0.0000 F   0  0  0  0  0  0  0  0  0  0  0  0
   11.0923    0.0000    0.0000 F   0  0  0  0  0  0  0  0  0  0  0  0
    9.5519   -1.5400    0.0000 F   0  0  0  0  0  0  0  0  0  0  0  0
    9.5519    1.5401    0.0000 F   0  0  0  0  0  0  0  0  0  0  0  0
    3.3914    0.0000    0.0000 O   0  0  0  0  0  0  0  0  0  0  0  0
    4.9315    0.0000    0.0000 C   0  0  0  0  0  0  0  0  0  0  0  0
    6.4717   -0.0001    0.0000 C   0  0  0  0  0  0  0  0  0  0  0  0
    8.0119    0.0001    0.0000 C   0  0  0  0  0  0  0  0  0  0  0  0
    4.9315    1.5401    0.0000 C   0  0  0  0  0  0  0  0  0  0  0  0
    4.9316   -1.5400    0.0000 C   0  0  0  0  0  0  0  0  0  0  0  0
    9.5519    0.0001    0.0000 C   0  0  0  0  0  0  0  0  0  0  0  0
  1 10  1  0  0  0  0
  2 10  1  0  0  0  0
  3 11  1  0  0  0  0
  4 11  1  0  0  0  0
  5 14  1  0  0  0  0
  6 14  1  0  0  0  0
  7 14  1  0  0  0  0
  8  9  1  0  0  0  0
  9 10  1  0  0  0  0
  9 12  1  0  0  0  0
  9 13  1  0  0  0  0
 10 11  1  0  0  0  0
 11 14  1  0  0  0  0
M  END
>  <INPUT>
DTXSID20337244

>  <FOUND_BY>
DSSTox_Substance_Id

>  <DTXSID>
DTXSID20337244

>  <PREFERRED_NAME>
2-Perfluoropropyl-2-propanol

>  <CASRN>
355-22-6

>  <INCHIKEY>
CZPWXOSMOFCBOR-UHFFFAOYSA-N

>  <IUPAC_NAME>
3,3,4,4,5,5,5-Heptafluoro-2-methylpentan-2-ol

>  <SMILES>
CC(C)(O)C(F)(F)C(F)(F)C(F)(F)F

>  <INCHI_STRING>
InChI=1S/C6H7F7O/c1-3(2,14)4(7,8)5(9,10)6(11,12)13/h14H,1-2H3


>  <MOLECULAR_FORMULA>
C6H7F7O

>  <AVERAGE_MASS>
228.11

>  <MONOISOTOPIC_MASS>
228.038511986

>  <MOL_FILE>
MOL_FILE

$$$$

  -INDIGO-02112615072D

 13 12  0  0  0  0  0  0  0  0999 V2000
   -0.3873   -0.0001    0.0000 C   0  0  0  0  0  0  0  0  0  0  0  0
    1.1527   -0.0053    0.0000 C   0  0  0  0  0  0  0  0  0  0  0  0
    2.6927   -0.0106    0.0000 C   0  0  0  0  0  0  0  0  0  0  0  0
    3.4582   -1.3469    0.0000 O   0  0  0  0  0  0  0  0  0  0  0  0
    3.4672    1.3205    0.0000 O   0  0  0  0  0  0  0  0  0  0  0  0
    1.1581    1.5347    0.0000 F   0  0  0  0  0  0  0  0  0  0  0  0
    1.1475   -1.5453    0.0000 F   0  0  0  0  0  0  0  0  0  0  0  0
   -1.9272    0.0053    0.0000 C   0  0  0  0  0  0  0  0  0  0  0  0
   -3.4672    0.0106    0.0000 F   0  0  0  0  0  0  0  0  0  0  0  0
   -1.9219    1.5453    0.0000 F   0  0  0  0  0  0  0  0  0  0  0  0
   -1.9325   -1.5347    0.0000 F   0  0  0  0  0  0  0  0  0  0  0  0
   -0.3819    1.5399    0.0000 F   0  0  0  0  0  0  0  0  0  0  0  0
   -0.3925   -1.5400    0.0000 F   0  0  0  0  0  0  0  0  0  0  0  0
  1  2  1  0  0  0  0
  2  3  1  0  0  0  0
  3  4  1  0  0  0  0
  3  5  2  0  0  0  0
  2  6  1  0  0  0  0
  2  7  1  0  0  0  0
  1  8  1  0  0  0  0
  8  9  1  0  0  0  0
  8 10  1  0  0  0  0
  8 11  1  0  0  0  0
  1 12  1  0  0  0  0
  1 13  1  0  0  0  0
M  END
>  <INPUT>
DTXSID4059916

>  <FOUND_BY>
DSSTox_Substance_Id

>  <DTXSID>
DTXSID4059916

>  <PREFERRED_NAME>
Perfluorobutanoic acid

>  <CASRN>
375-22-4

>  <INCHIKEY>
YPJUNDFVDDCYIH-UHFFFAOYSA-N

>  <IUPAC_NAME>
Heptafluorobutanoic acid

>  <SMILES>
OC(=O)C(F)(F)C(F)(F)C(F)(F)F

>  <INCHI_STRING>
InChI=1S/C4HF7O2/c5-2(6,1(12)13)3(7,8)4(9,10)11/h(H,12,13)


>  <MOLECULAR_FORMULA>
C4HF7O2

>  <AVERAGE_MASS>
214.039

>  <MONOISOTOPIC_MASS>
213.986476413

>  <MOL_FILE>
MOL_FILE

$$$$

  -INDIGO-02112615072D

 28 27  0  0  0  0  0  0  0  0999 V2000
    8.9785    0.9486    0.0000 F   0  0  0  0  0  0  0  0  0  0  0  0
   10.5187   -1.7186    0.0000 F   0  0  0  0  0  0  0  0  0  0  0  0
   11.8524   -0.9486    0.0000 F   0  0  0  0  0  0  0  0  0  0  0  0
   10.3124    1.7186    0.0000 F   0  0  0  0  0  0  0  0  0  0  0  0
    7.6449    0.1786    0.0000 F   0  0  0  0  0  0  0  0  0  0  0  0
    9.1849   -2.4886    0.0000 F   0  0  0  0  0  0  0  0  0  0  0  0
   13.1861   -0.1786    0.0000 F   0  0  0  0  0  0  0  0  0  0  0  0
   11.6461    2.4886    0.0000 F   0  0  0  0  0  0  0  0  0  0  0  0
    6.3112   -0.5914    0.0000 F   0  0  0  0  0  0  0  0  0  0  0  0
    7.8512   -3.2586    0.0000 F   0  0  0  0  0  0  0  0  0  0  0  0
   14.5197    0.5914    0.0000 F   0  0  0  0  0  0  0  0  0  0  0  0
   12.9797    3.2586    0.0000 F   0  0  0  0  0  0  0  0  0  0  0  0
    4.9775   -1.3614    0.0000 F   0  0  0  0  0  0  0  0  0  0  0  0
   15.8534    1.3614    0.0000 F   0  0  0  0  0  0  0  0  0  0  0  0
   14.3134    4.0286    0.0000 F   0  0  0  0  0  0  0  0  0  0  0  0
    6.5175   -4.0286    0.0000 F   0  0  0  0  0  0  0  0  0  0  0  0
    9.7485   -0.3851    0.0000 C   0  0  0  0  0  0  0  0  0  0  0  0
   11.0824    0.3851    0.0000 C   0  0  0  0  0  0  0  0  0  0  0  0
    8.4149   -1.1551    0.0000 C   0  0  0  0  0  0  0  0  0  0  0  0
   12.4161    1.1551    0.0000 C   0  0  0  0  0  0  0  0  0  0  0  0
    7.0812   -1.9251    0.0000 C   0  0  0  0  0  0  0  0  0  0  0  0
   13.7497    1.9251    0.0000 C   0  0  0  0  0  0  0  0  0  0  0  0
    5.7475   -2.6951    0.0000 C   0  0  0  0  0  0  0  0  0  0  0  0
   15.0834    2.6951    0.0000 C   0  0  0  0  0  0  0  0  0  0  0  0
   16.4171    3.4651    0.0000 C   0  0  0  0  0  0  0  0  0  0  0  0
    4.4137   -3.4651    0.0000 C   0  0  0  0  0  0  0  0  0  0  0  0
   17.7509    2.6951    0.0000 C   0  0  0  0  0  0  0  0  0  0  0  0
    3.0800   -2.6951    0.0000 C   0  0  0  0  0  0  0  0  0  0  0  0
  1 17  1  0  0  0  0
  2 17  1  0  0  0  0
  3 18  1  0  0  0  0
  4 18  1  0  0  0  0
  5 19  1  0  0  0  0
  6 19  1  0  0  0  0
  7 20  1  0  0  0  0
  8 20  1  0  0  0  0
  9 21  1  0  0  0  0
 10 21  1  0  0  0  0
 11 22  1  0  0  0  0
 12 22  1  0  0  0  0
 13 23  1  0  0  0  0
 14 24  1  0  0  0  0
 15 24  1  0  0  0  0
 16 23  1  0  0  0  0
 17 18  1  0  0  0  0
 17 19  1  0  0  0  0
 18 20  1  0  0  0  0
 19 21  1  0  0  0  0
 20 22  1  0  0  0  0
 21 23  1  0  0  0  0
 22 24  1  0  0  0  0
 23 26  1  0  0  0  0
 24 25  1  0  0  0  0
 25 27  2  0  0  0  0
 26 28  2  0  0  0  0
M  END
>  <INPUT>
DTXSID90371872

>  <FOUND_BY>
DSSTox_Substance_Id

>  <DTXSID>
DTXSID90371872

>  <PREFERRED_NAME>
1,8-Divinylperfluorooctane

>  <CASRN>
35192-44-0

>  <INCHIKEY>
JJLUWYULIBMDGF-UHFFFAOYSA-N

>  <IUPAC_NAME>
3,3,4,4,5,5,6,6,7,7,8,8,9,9,10,10-Hexadecafluorododeca-1,11-diene

>  <SMILES>
FC(F)(C=C)C(F)(F)C(F)(F)C(F)(F)C(F)(F)C(F)(F)C(F)(F)C(F)(F)C=C

>  <INCHI_STRING>
InChI=1S/C12H6F16/c1-3-5(13,14)7(17,18)9(21,22)11(25,26)12(27,28)10(23,24)8(19,20)6(15,16)4-2/h3-4H,1-2H2

>  <MOLECULAR_FORMULA>
C12H6F16

>  <AVERAGE_MASS>
454.154

>  <MONOISOTOPIC_MASS>
454.021400801

>  <MOL_FILE>
MOL_FILE

$$$$

  -INDIGO-02112615072D

 18 17  0  0  0  0  0  0  0  0999 V2000
    6.3112    1.0519    0.0000 F   0  0  0  0  0  0  0  0  0  0  0  0
    7.8512   -1.6154    0.0000 F   0  0  0  0  0  0  0  0  0  0  0  0
    5.7475   -2.5919    0.0000 F   0  0  0  0  0  0  0  0  0  0  0  0
   10.3124    1.8219    0.0000 F   0  0  0  0  0  0  0  0  0  0  0  0
   11.8524   -0.8454    0.0000 F   0  0  0  0  0  0  0  0  0  0  0  0
    3.0800    0.4881    0.0000 F   0  0  0  0  0  0  0  0  0  0  0  0
    3.6437   -1.6154    0.0000 F   0  0  0  0  0  0  0  0  0  0  0  0
    5.1837    1.0519    0.0000 F   0  0  0  0  0  0  0  0  0  0  0  0
   13.7497    2.0281    0.0000 F   0  0  0  0  0  0  0  0  0  0  0  0
   11.6461    2.5919    0.0000 F   0  0  0  0  0  0  0  0  0  0  0  0
   13.1861   -0.0754    0.0000 F   0  0  0  0  0  0  0  0  0  0  0  0
    8.4149    0.4881    0.0000 O   0  0  0  0  0  0  0  0  0  0  0  0
    7.0812   -0.2819    0.0000 C   0  0  0  0  0  0  0  0  0  0  0  0
    5.7475   -1.0519    0.0000 C   0  0  0  0  0  0  0  0  0  0  0  0
    9.7485   -0.2819    0.0000 C   0  0  0  0  0  0  0  0  0  0  0  0
   11.0824    0.4881    0.0000 C   0  0  0  0  0  0  0  0  0  0  0  0
    4.4137   -0.2819    0.0000 C   0  0  0  0  0  0  0  0  0  0  0  0
   12.4161    1.2581    0.0000 C   0  0  0  0  0  0  0  0  0  0  0  0
  1 13  1  0  0  0  0
  2 13  1  0  0  0  0
  3 14  1  0  0  0  0
  4 16  1  0  0  0  0
  5 16  1  0  0  0  0
  6 17  1  0  0  0  0
  7 17  1  0  0  0  0
  8 17  1  0  0  0  0
  9 18  1  0  0  0  0
 10 18  1  0  0  0  0
 11 18  1  0  0  0  0
 12 13  1  0  0  0  0
 12 15  1  0  0  0  0
 13 14  1  0  0  0  0
 14 17  1  0  0  0  0
 15 16  1  0  0  0  0
 16 18  1  0  0  0  0
M  END
>  <INPUT>
DTXSID50380985

>  <FOUND_BY>
DSSTox_Substance_Id

>  <DTXSID>
DTXSID50380985

>  <PREFERRED_NAME>
1H,1H,2'H-Perfluorodipropyl ether

>  <CASRN>
1000-28-8

>  <INCHIKEY>
JOROOXPAFHWVRW-UHFFFAOYNA-N

>  <IUPAC_NAME>
1,1,1,2,3,3-Hexafluoro-3-(2,2,3,3,3-pentafluoropropoxy)propane

>  <SMILES>
FC(C(F)(F)F)C(F)(F)OCC(F)(F)C(F)(F)F

>  <INCHI_STRING>
InChI=1S/C6H3F11O/c7-2(4(10,11)12)5(13,14)18-1-3(8,9)6(15,16)17/h2H,1H2

>  <MOLECULAR_FORMULA>
C6H3F11O

>  <AVERAGE_MASS>
300.071

>  <MONOISOTOPIC_MASS>
300.00082451

>  <MOL_FILE>
MOL_FILE

$$$$

  -INDIGO-02112615072D

 26 25  0  0  0  0  0  0  0  0999 V2000
    3.0800   -3.4651    0.0000 I   0  0  0  0  0  0  0  0  0  0  0  0
   15.0834    3.4651    0.0000 I   0  0  0  0  0  0  0  0  0  0  0  0
    7.6449    0.9486    0.0000 F   0  0  0  0  0  0  0  0  0  0  0  0
    9.1849   -1.7186    0.0000 F   0  0  0  0  0  0  0  0  0  0  0  0
   10.5187   -0.9486    0.0000 F   0  0  0  0  0  0  0  0  0  0  0  0
    8.9785    1.7186    0.0000 F   0  0  0  0  0  0  0  0  0  0  0  0
    6.3112    0.1786    0.0000 F   0  0  0  0  0  0  0  0  0  0  0  0
    7.8512   -2.4886    0.0000 F   0  0  0  0  0  0  0  0  0  0  0  0
   11.8524   -0.1786    0.0000 F   0  0  0  0  0  0  0  0  0  0  0  0
   10.3124    2.4886    0.0000 F   0  0  0  0  0  0  0  0  0  0  0  0
    4.9775   -0.5914    0.0000 F   0  0  0  0  0  0  0  0  0  0  0  0
    6.5175   -3.2586    0.0000 F   0  0  0  0  0  0  0  0  0  0  0  0
   13.1861    0.5914    0.0000 F   0  0  0  0  0  0  0  0  0  0  0  0
   11.6461    3.2586    0.0000 F   0  0  0  0  0  0  0  0  0  0  0  0
    3.6437   -1.3614    0.0000 F   0  0  0  0  0  0  0  0  0  0  0  0
    5.1837   -4.0286    0.0000 F   0  0  0  0  0  0  0  0  0  0  0  0
   14.5197    1.3614    0.0000 F   0  0  0  0  0  0  0  0  0  0  0  0
   12.9797    4.0286    0.0000 F   0  0  0  0  0  0  0  0  0  0  0  0
    8.4149   -0.3851    0.0000 C   0  0  0  0  0  0  0  0  0  0  0  0
    9.7485    0.3851    0.0000 C   0  0  0  0  0  0  0  0  0  0  0  0
    7.0812   -1.1551    0.0000 C   0  0  0  0  0  0  0  0  0  0  0  0
   11.0824    1.1551    0.0000 C   0  0  0  0  0  0  0  0  0  0  0  0
    5.7475   -1.9251    0.0000 C   0  0  0  0  0  0  0  0  0  0  0  0
   12.4161    1.9251    0.0000 C   0  0  0  0  0  0  0  0  0  0  0  0
    4.4137   -2.6951    0.0000 C   0  0  0  0  0  0  0  0  0  0  0  0
   13.7497    2.6951    0.0000 C   0  0  0  0  0  0  0  0  0  0  0  0
  1 25  1  0  0  0  0
  2 26  1  0  0  0  0
  3 19  1  0  0  0  0
  4 19  1  0  0  0  0
  5 20  1  0  0  0  0
  6 20  1  0  0  0  0
  7 21  1  0  0  0  0
  8 21  1  0  0  0  0
  9 22  1  0  0  0  0
 10 22  1  0  0  0  0
 11 23  1  0  0  0  0
 12 23  1  0  0  0  0
 13 24  1  0  0  0  0
 14 24  1  0  0  0  0
 15 25  1  0  0  0  0
 16 25  1  0  0  0  0
 17 26  1  0  0  0  0
 18 26  1  0  0  0  0
 19 20  1  0  0  0  0
 19 21  1  0  0  0  0
 20 22  1  0  0  0  0
 21 23  1  0  0  0  0
 22 24  1  0  0  0  0
 23 25  1  0  0  0  0
 24 26  1  0  0  0  0
M  END
>  <INPUT>
DTXSID50335975

>  <FOUND_BY>
DSSTox_Substance_Id

>  <DTXSID>
DTXSID50335975

>  <PREFERRED_NAME>
1,8-Diiodoperfluorooctane

>  <CASRN>
335-70-6

>  <INCHIKEY>
SRDQTCUHAMDAMG-UHFFFAOYSA-N

>  <IUPAC_NAME>
1,1,2,2,3,3,4,4,5,5,6,6,7,7,8,8-Hexadecafluoro-1,8-diiodooctane

>  <SMILES>
FC(F)(I)C(F)(F)C(F)(F)C(F)(F)C(F)(F)C(F)(F)C(F)(F)C(F)(F)I

>  <INCHI_STRING>
InChI=1S/C8F16I2/c9-1(10,3(13,14)5(17,18)7(21,22)25)2(11,12)4(15,16)6(19,20)8(23,24)26

>  <MOLECULAR_FORMULA>
C8F16I2

>  <AVERAGE_MASS>
653.871

>  <MONOISOTOPIC_MASS>
653.78339

>  <MOL_FILE>
MOL_FILE

$$$$

  -INDIGO-02112615072D

 30 29  0  0  0  0  0  0  0  0999 V2000
    8.9785    1.3337    0.0000 F   0  0  0  0  0  0  0  0  0  0  0  0
   10.5187   -1.3337    0.0000 F   0  0  0  0  0  0  0  0  0  0  0  0
   10.3124    2.1037    0.0000 F   0  0  0  0  0  0  0  0  0  0  0  0
   11.8524   -0.5637    0.0000 F   0  0  0  0  0  0  0  0  0  0  0  0
    7.6449    0.5637    0.0000 F   0  0  0  0  0  0  0  0  0  0  0  0
    9.1849   -2.1037    0.0000 F   0  0  0  0  0  0  0  0  0  0  0  0
   13.1861    0.2065    0.0000 F   0  0  0  0  0  0  0  0  0  0  0  0
   11.6461    2.8737    0.0000 F   0  0  0  0  0  0  0  0  0  0  0  0
    6.3112   -0.2065    0.0000 F   0  0  0  0  0  0  0  0  0  0  0  0
    7.8512   -2.8737    0.0000 F   0  0  0  0  0  0  0  0  0  0  0  0
   14.5197    0.9765    0.0000 F   0  0  0  0  0  0  0  0  0  0  0  0
   12.9797    3.6437    0.0000 F   0  0  0  0  0  0  0  0  0  0  0  0
    4.9775   -0.9765    0.0000 F   0  0  0  0  0  0  0  0  0  0  0  0
    6.5175   -3.6437    0.0000 F   0  0  0  0  0  0  0  0  0  0  0  0
   15.8534    1.7465    0.0000 F   0  0  0  0  0  0  0  0  0  0  0  0
   14.3134    4.4137    0.0000 F   0  0  0  0  0  0  0  0  0  0  0  0
    3.0800   -3.8500    0.0000 F   0  0  0  0  0  0  0  0  0  0  0  0
    3.6437   -1.7465    0.0000 F   0  0  0  0  0  0  0  0  0  0  0  0
    5.1837   -4.4137    0.0000 F   0  0  0  0  0  0  0  0  0  0  0  0
   17.7509    3.0800    0.0000 O   0  0  0  0  0  0  0  0  0  0  0  0
    9.7485    0.0000    0.0000 C   0  0  0  0  0  0  0  0  0  0  0  0
   11.0824    0.7700    0.0000 C   0  0  0  0  0  0  0  0  0  0  0  0
    8.4149   -0.7700    0.0000 C   0  0  0  0  0  0  0  0  0  0  0  0
   12.4161    1.5400    0.0000 C   0  0  0  0  0  0  0  0  0  0  0  0
    7.0812   -1.5400    0.0000 C   0  0  0  0  0  0  0  0  0  0  0  0
   13.7497    2.3100    0.0000 C   0  0  0  0  0  0  0  0  0  0  0  0
    5.7475   -2.3100    0.0000 C   0  0  0  0  0  0  0  0  0  0  0  0
   15.0834    3.0800    0.0000 C   0  0  0  0  0  0  0  0  0  0  0  0
    4.4137   -3.0800    0.0000 C   0  0  0  0  0  0  0  0  0  0  0  0
   16.4171    3.8500    0.0000 C   0  0  0  0  0  0  0  0  0  0  0  0
  1 21  1  0  0  0  0
  2 21  1  0  0  0  0
  3 22  1  0  0  0  0
  4 22  1  0  0  0  0
  5 23  1  0  0  0  0
  6 23  1  0  0  0  0
  7 24  1  0  0  0  0
  8 24  1  0  0  0  0
  9 25  1  0  0  0  0
 10 25  1  0  0  0  0
 11 26  1  0  0  0  0
 12 26  1  0  0  0  0
 13 27  1  0  0  0  0
 14 27  1  0  0  0  0
 15 28  1  0  0  0  0
 16 28  1  0  0  0  0
 17 29  1  0  0  0  0
 18 29  1  0  0  0  0
 19 29  1  0  0  0  0
 20 30  1  0  0  0  0
 21 22  1  0  0  0  0
 21 23  1  0  0  0  0
 22 24  1  0  0  0  0
 23 25  1  0  0  0  0
 24 26  1  0  0  0  0
 25 27  1  0  0  0  0
 26 28  1  0  0  0  0
 27 29  1  0  0  0  0
 28 30  1  0  0  0  0
M  END
>  <INPUT>
DTXSID00369826

>  <FOUND_BY>
DSSTox_Substance_Id

>  <DTXSID>
DTXSID00369826

>  <PREFERRED_NAME>
9:1 Fluorotelomer alcohol

>  <CASRN>
307-37-9

>  <INCHIKEY>
NIRPXSQCRWXHNZ-UHFFFAOYSA-N

>  <IUPAC_NAME>
2,2,3,3,4,4,5,5,6,6,7,7,8,8,9,9,10,10,10-Nonadecafluorodecan-1-ol

>  <SMILES>
OCC(F)(F)C(F)(F)C(F)(F)C(F)(F)C(F)(F)C(F)(F)C(F)(F)C(F)(F)C(F)(F)F

>  <INCHI_STRING>
InChI=1S/C10H3F19O/c11-2(12,1-30)3(13,14)4(15,16)5(17,18)6(19,20)7(21,22)8(23,24)9(25,26)10(27,28)29/h30H,1H2

>  <MOLECULAR_FORMULA>
C10H3F19O

>  <AVERAGE_MASS>
500.103

>  <MONOISOTOPIC_MASS>
499.988049814

>  <MOL_FILE>
MOL_FILE

$$$$

  -INDIGO-02112615072D

 28 27  0  0  0  0  0  0  0  0999 V2000
   10.0304    0.6670    0.0000 S   0  0  0  0  0  0  0  0  0  0  0  0
    8.4904    2.2068    0.0000 F   0  0  0  0  0  0  0  0  0  0  0  0
    8.4905   -0.8731    0.0000 F   0  0  0  0  0  0  0  0  0  0  0  0
    6.9504    2.2068    0.0000 F   0  0  0  0  0  0  0  0  0  0  0  0
    6.9504   -0.8731    0.0000 F   0  0  0  0  0  0  0  0  0  0  0  0
    5.4103    2.2069    0.0000 F   0  0  0  0  0  0  0  0  0  0  0  0
    5.4104   -0.8731    0.0000 F   0  0  0  0  0  0  0  0  0  0  0  0
   13.8805   -2.2068    0.0000 F   0  0  0  0  0  0  0  0  0  0  0  0
   13.8805    0.8731    0.0000 F   0  0  0  0  0  0  0  0  0  0  0  0
   15.4205   -2.2069    0.0000 F   0  0  0  0  0  0  0  0  0  0  0  0
   15.4205    0.8731    0.0000 F   0  0  0  0  0  0  0  0  0  0  0  0
    2.3302    0.6669    0.0000 F   0  0  0  0  0  0  0  0  0  0  0  0
    3.8703    2.2069    0.0000 F   0  0  0  0  0  0  0  0  0  0  0  0
    3.8703   -0.8731    0.0000 F   0  0  0  0  0  0  0  0  0  0  0  0
   18.5007   -0.6669    0.0000 F   0  0  0  0  0  0  0  0  0  0  0  0
   16.9608   -2.2070    0.0000 F   0  0  0  0  0  0  0  0  0  0  0  0
   16.9606    0.8731    0.0000 F   0  0  0  0  0  0  0  0  0  0  0  0
   11.5706    0.6669    0.0000 O   0  0  0  0  0  0  0  0  0  0  0  0
   10.0305   -0.8732    0.0000 O   0  0  0  0  0  0  0  0  0  0  0  0
   10.0303    2.2069    0.0000 O   0  0  0  0  0  0  0  0  0  0  0  0
    8.4904    0.6668    0.0000 C   0  0  0  0  0  0  0  0  0  0  0  0
    6.9504    0.6668    0.0000 C   0  0  0  0  0  0  0  0  0  0  0  0
    5.4103    0.6668    0.0000 C   0  0  0  0  0  0  0  0  0  0  0  0
   13.8805   -0.6668    0.0000 C   0  0  0  0  0  0  0  0  0  0  0  0
   12.3406   -0.6668    0.0000 C   0  0  0  0  0  0  0  0  0  0  0  0
   15.4206   -0.6668    0.0000 C   0  0  0  0  0  0  0  0  0  0  0  0
    3.8703    0.6668    0.0000 C   0  0  0  0  0  0  0  0  0  0  0  0
   16.9606   -0.6668    0.0000 C   0  0  0  0  0  0  0  0  0  0  0  0
  1 18  1  0  0  0  0
  1 19  2  0  0  0  0
  1 20  2  0  0  0  0
  1 21  1  0  0  0  0
  2 21  1  0  0  0  0
  3 21  1  0  0  0  0
  4 22  1  0  0  0  0
  5 22  1  0  0  0  0
  6 23  1  0  0  0  0
  7 23  1  0  0  0  0
  8 24  1  0  0  0  0
  9 24  1  0  0  0  0
 10 26  1  0  0  0  0
 11 26  1  0  0  0  0
 12 27  1  0  0  0  0
 13 27  1  0  0  0  0
 14 27  1  0  0  0  0
 15 28  1  0  0  0  0
 16 28  1  0  0  0  0
 17 28  1  0  0  0  0
 18 25  1  0  0  0  0
 21 22  1  0  0  0  0
 22 23  1  0  0  0  0
 23 27  1  0  0  0  0
 24 25  1  0  0  0  0
 24 26  1  0  0  0  0
 26 28  1  0  0  0  0
M  END
>  <INPUT>
DTXSID70382047

>  <FOUND_BY>
DSSTox_Substance_Id

>  <DTXSID>
DTXSID70382047

>  <PREFERRED_NAME>
1H,1H-Perfluorobutyl perfluorobutanesulfonate

>  <CASRN>
883499-32-9

>  <INCHIKEY>
TXGIYYDHRSACPQ-UHFFFAOYSA-N

>  <IUPAC_NAME>
2,2,3,3,4,4,4-Heptafluorobutyl nonafluorobutane-1-sulfonate

>  <SMILES>
FC(F)(F)C(F)(F)C(F)(F)COS(=O)(=O)C(F)(F)C(F)(F)C(F)(F)C(F)(F)F

>  <INCHI_STRING>
InChI=1S/C8H2F16O3S/c9-2(10,3(11,12)6(17,18)19)1-27-28(25,26)8(23,24)5(15,16)4(13,14)7(20,21)22/h1H2


>  <MOLECULAR_FORMULA>
C8H2F16O3S

>  <AVERAGE_MASS>
482.14

>  <MONOISOTOPIC_MASS>
481.946915706

>  <MOL_FILE>
MOL_FILE

$$$$

  -INDIGO-02112615072D

 17 16  0  0  0  0  0  0  0  0999 V2000
    3.6925   -6.7477    0.0000 F   0  0  0  0  0  0  0  0  0  0  0  0
    3.6925   -5.2077    0.0000 C   0  0  0  0  0  0  0  0  0  0  0  0
    3.6925   -3.6677    0.0000 C   0  0  0  0  0  0  0  0  0  0  0  0
    5.2325   -5.2077    0.0000 F   0  0  0  0  0  0  0  0  0  0  0  0
    2.1525   -5.2077    0.0000 F   0  0  0  0  0  0  0  0  0  0  0  0
    3.6925   -2.1277    0.0000 C   0  0  0  0  0  0  0  0  0  0  0  0
    5.2325   -3.6677    0.0000 F   0  0  0  0  0  0  0  0  0  0  0  0
    2.1525   -3.6677    0.0000 F   0  0  0  0  0  0  0  0  0  0  0  0
    5.2325   -2.1277    0.0000 F   0  0  0  0  0  0  0  0  0  0  0  0
    3.6925   -0.5877    0.0000 O   0  0  0  0  0  0  0  0  0  0  0  0
    2.1525   -2.1277    0.0000 F   0  0  0  0  0  0  0  0  0  0  0  0
    5.0262    0.1823    0.0000 C   0  0  0  0  0  0  0  0  0  0  0  0
    5.0262    1.7223    0.0000 C   0  0  0  0  0  0  0  0  0  0  0  0
    6.3598   -0.5877    0.0000 F   0  0  0  0  0  0  0  0  0  0  0  0
    5.0262    3.2623    0.0000 F   0  0  0  0  0  0  0  0  0  0  0  0
    6.5662    1.7223    0.0000 F   0  0  0  0  0  0  0  0  0  0  0  0
    3.4862    1.7223    0.0000 F   0  0  0  0  0  0  0  0  0  0  0  0
  1  2  1  0  0  0  0
  2  3  1  0  0  0  0
  2  4  1  0  0  0  0
  2  5  1  0  0  0  0
  3  6  1  0  0  0  0
  3  7  1  0  0  0  0
  3  8  1  0  0  0  0
  6  9  1  0  0  0  0
  6 10  1  0  0  0  0
  6 11  1  0  0  0  0
 10 12  1  0  0  0  0
 12 13  1  0  0  0  0
 12 14  1  0  0  0  0
 13 15  1  0  0  0  0
 13 16  1  0  0  0  0
 13 17  1  0  0  0  0
M  END
>  <INPUT>
DTXSID8052017

>  <FOUND_BY>
DSSTox_Substance_Id

>  <DTXSID>
DTXSID8052017

>  <PREFERRED_NAME>
Perfluoro-3-(1H-perfluoroethoxy)propane

>  <CASRN>
3330-15-2

>  <INCHIKEY>
CUTPKDUMZWIJKT-UHFFFAOYNA-N

>  <IUPAC_NAME>
1,1,1,2,2,3,3-Heptafluoro-3-(1,2,2,2-tetrafluoroethoxy)propane

>  <SMILES>
FC(OC(F)(F)C(F)(F)C(F)(F)F)C(F)(F)F

>  <INCHI_STRING>
InChI=1S/C5HF11O/c6-1(2(7,8)9)17-5(15,16)3(10,11)4(12,13)14/h1H

>  <MOLECULAR_FORMULA>
C5HF11O

>  <AVERAGE_MASS>
286.044

>  <MONOISOTOPIC_MASS>
285.985174445

>  <MOL_FILE>
MOL_FILE

$$$$

  -INDIGO-02112615072D

 24 23  0  0  0  0  0  0  0  0999 V2000
   11.3456   -0.9486    0.0000 F   0  0  0  0  0  0  0  0  0  0  0  0
    9.8056    1.7186    0.0000 F   0  0  0  0  0  0  0  0  0  0  0  0
    8.4717    0.9486    0.0000 F   0  0  0  0  0  0  0  0  0  0  0  0
   10.0117   -1.7186    0.0000 F   0  0  0  0  0  0  0  0  0  0  0  0
    7.1381    0.1786    0.0000 F   0  0  0  0  0  0  0  0  0  0  0  0
   12.6793   -0.1786    0.0000 F   0  0  0  0  0  0  0  0  0  0  0  0
   11.1391    2.4886    0.0000 F   0  0  0  0  0  0  0  0  0  0  0  0
    8.6781   -2.4886    0.0000 F   0  0  0  0  0  0  0  0  0  0  0  0
    5.8044   -0.5914    0.0000 F   0  0  0  0  0  0  0  0  0  0  0  0
    7.3444   -3.2586    0.0000 F   0  0  0  0  0  0  0  0  0  0  0  0
   14.0129    0.5914    0.0000 F   0  0  0  0  0  0  0  0  0  0  0  0
   12.4729    3.2586    0.0000 F   0  0  0  0  0  0  0  0  0  0  0  0
   15.9103    1.9251    0.0000 O   0  0  0  0  0  0  0  0  0  0  0  0
    3.9069   -1.9251    0.0000 O   0  0  0  0  0  0  0  0  0  0  0  0
    5.2407   -4.2351    0.0000 O   0  0  0  0  0  0  0  0  0  0  0  0
   14.5766    4.2351    0.0000 O   0  0  0  0  0  0  0  0  0  0  0  0
    9.2417   -0.3851    0.0000 C   0  0  0  0  0  0  0  0  0  0  0  0
   10.5756    0.3851    0.0000 C   0  0  0  0  0  0  0  0  0  0  0  0
    7.9081   -1.1551    0.0000 C   0  0  0  0  0  0  0  0  0  0  0  0
   11.9091    1.1551    0.0000 C   0  0  0  0  0  0  0  0  0  0  0  0
    6.5744   -1.9251    0.0000 C   0  0  0  0  0  0  0  0  0  0  0  0
   13.2429    1.9251    0.0000 C   0  0  0  0  0  0  0  0  0  0  0  0
    5.2407   -2.6951    0.0000 C   0  0  0  0  0  0  0  0  0  0  0  0
   14.5766    2.6951    0.0000 C   0  0  0  0  0  0  0  0  0  0  0  0
  1 18  1  0  0  0  0
  2 18  1  0  0  0  0
  3 17  1  0  0  0  0
  4 17  1  0  0  0  0
  5 19  1  0  0  0  0
  6 20  1  0  0  0  0
  7 20  1  0  0  0  0
  8 19  1  0  0  0  0
  9 21  1  0  0  0  0
 10 21  1  0  0  0  0
 11 22  1  0  0  0  0
 12 22  1  0  0  0  0
 13 24  1  0  0  0  0
 14 23  1  0  0  0  0
 15 23  2  0  0  0  0
 16 24  2  0  0  0  0
 17 18  1  0  0  0  0
 17 19  1  0  0  0  0
 18 20  1  0  0  0  0
 19 21  1  0  0  0  0
 20 22  1  0  0  0  0
 21 23  1  0  0  0  0
 22 24  1  0  0  0  0
M  END
>  <INPUT>
DTXSID00369821

>  <FOUND_BY>
DSSTox_Substance_Id

>  <DTXSID>
DTXSID00369821

>  <PREFERRED_NAME>
Perfluorooctanedioic acid

>  <CASRN>
678-45-5

>  <INCHIKEY>
QYCPVKMFWNBDPV-UHFFFAOYSA-N

>  <IUPAC_NAME>
Dodecafluorooctanedioic acid

>  <SMILES>
OC(=O)C(F)(F)C(F)(F)C(F)(F)C(F)(F)C(F)(F)C(F)(F)C(O)=O

>  <INCHI_STRING>
InChI=1S/C8H2F12O4/c9-3(10,1(21)22)5(13,14)7(17,18)8(19,20)6(15,16)4(11,12)2(23)24/h(H,21,22)(H,23,24)

>  <MOLECULAR_FORMULA>
C8H2F12O4

>  <AVERAGE_MASS>
390.081

>  <MONOISOTOPIC_MASS>
389.9761465

>  <MOL_FILE>
MOL_FILE

$$$$

  -INDIGO-02112615072D

 12 11  0  0  0  0  0  0  0  0999 V2000
    1.5400    0.0000    0.0000 C   0  0  0  0  0  0  0  0  0  0  0  0
    1.5400   -1.5400    0.0000 C   0  0  0  0  0  0  0  0  0  0  0  0
    1.5400   -3.0800    0.0000 C   0  0  0  0  0  0  0  0  0  0  0  0
    0.2063   -3.8500    0.0000 O   0  0  0  0  0  0  0  0  0  0  0  0
    3.0800   -1.5400    0.0000 F   0  0  0  0  0  0  0  0  0  0  0  0
    0.0000   -1.5400    0.0000 F   0  0  0  0  0  0  0  0  0  0  0  0
    1.5400    1.5400    0.0000 C   0  0  0  0  0  0  0  0  0  0  0  0
    1.5400    3.0800    0.0000 F   0  0  0  0  0  0  0  0  0  0  0  0
    3.0800    1.5400    0.0000 F   0  0  0  0  0  0  0  0  0  0  0  0
    0.0000    1.5400    0.0000 F   0  0  0  0  0  0  0  0  0  0  0  0
    3.0800    0.0000    0.0000 F   0  0  0  0  0  0  0  0  0  0  0  0
    0.0000    0.0000    0.0000 F   0  0  0  0  0  0  0  0  0  0  0  0
  1  2  1  0  0  0  0
  2  3  1  0  0  0  0
  3  4  1  0  0  0  0
  2  5  1  0  0  0  0
  2  6  1  0  0  0  0
  1  7  1  0  0  0  0
  7  8  1  0  0  0  0
  7  9  1  0  0  0  0
  7 10  1  0  0  0  0
  1 11  1  0  0  0  0
  1 12  1  0  0  0  0
M  END
>  <INPUT>
DTXSID4059914

>  <FOUND_BY>
DSSTox_Substance_Id

>  <DTXSID>
DTXSID4059914

>  <PREFERRED_NAME>
3:1 Fluorotelomer alcohol

>  <CASRN>
375-01-9

>  <INCHIKEY>
WXJFKAZDSQLPBX-UHFFFAOYSA-N

>  <IUPAC_NAME>
2,2,3,3,4,4,4-Heptafluorobutan-1-ol

>  <SMILES>
OCC(F)(F)C(F)(F)C(F)(F)F

>  <INCHI_STRING>
InChI=1S/C4H3F7O/c5-2(6,1-12)3(7,8)4(9,10)11/h12H,1H2

>  <MOLECULAR_FORMULA>
C4H3F7O

>  <AVERAGE_MASS>
200.056

>  <MONOISOTOPIC_MASS>
200.007211858

>  <MOL_FILE>
MOL_FILE

$$$$

  -INDIGO-02112615072D

 12 11  0  0  0  0  0  0  0  0999 V2000
    4.6200   -5.3347    0.0000 F   0  0  0  0  0  0  0  0  0  0  0  0
    3.8500   -4.0010    0.0000 C   0  0  0  0  0  0  0  0  0  0  0  0
    5.1837   -3.2310    0.0000 F   0  0  0  0  0  0  0  0  0  0  0  0
    2.5163   -4.7710    0.0000 F   0  0  0  0  0  0  0  0  0  0  0  0
    3.0800   -2.6673    0.0000 C   0  0  0  0  0  0  0  0  0  0  0  0
    4.4137   -1.8973    0.0000 F   0  0  0  0  0  0  0  0  0  0  0  0
    1.7463   -3.4373    0.0000 F   0  0  0  0  0  0  0  0  0  0  0  0
    2.3100   -1.3337    0.0000 C   0  0  0  0  0  0  0  0  0  0  0  0
    3.6437   -0.5637    0.0000 F   0  0  0  0  0  0  0  0  0  0  0  0
    0.9763   -2.1037    0.0000 F   0  0  0  0  0  0  0  0  0  0  0  0
    1.5400    0.0000    0.0000 C   0  0  0  0  0  0  0  0  0  0  0  0
    0.0000    0.0000    0.0000 I   0  0  0  0  0  0  0  0  0  0  0  0
  1  2  1  0  0  0  0
  2  3  1  0  0  0  0
  2  4  1  0  0  0  0
  2  5  1  0  0  0  0
  5  6  1  0  0  0  0
  5  7  1  0  0  0  0
  5  8  1  0  0  0  0
  8  9  1  0  0  0  0
  8 10  1  0  0  0  0
  8 11  1  0  0  0  0
 11 12  1  0  0  0  0
M  END
>  <INPUT>
DTXSID4059912

>  <FOUND_BY>
DSSTox_Substance_Id

>  <DTXSID>
DTXSID4059912

>  <PREFERRED_NAME>
Heptafluorobutyl iodide

>  <CASRN>
374-98-1

>  <INCHIKEY>
AFHPVXVEXINDFS-UHFFFAOYSA-N

>  <IUPAC_NAME>
1,1,1,2,2,3,3-Heptafluoro-4-iodobutane

>  <SMILES>
FC(F)(F)C(F)(F)C(F)(F)CI

>  <INCHI_STRING>
InChI=1S/C4H2F7I/c5-2(6,1-12)3(7,8)4(9,10)11/h1H2

>  <MOLECULAR_FORMULA>
C4H2F7I

>  <AVERAGE_MASS>
309.953

>  <MONOISOTOPIC_MASS>
309.90894

>  <MOL_FILE>
MOL_FILE

$$$$

  -INDIGO-02112615072D

 24 23  0  0  0  0  0  0  0  0999 V2000
   10.3124    1.4368    0.0000 F   0  0  0  0  0  0  0  0  0  0  0  0
   11.8524   -1.2305    0.0000 F   0  0  0  0  0  0  0  0  0  0  0  0
   11.6461    2.2070    0.0000 F   0  0  0  0  0  0  0  0  0  0  0  0
   13.1861   -0.4605    0.0000 F   0  0  0  0  0  0  0  0  0  0  0  0
    8.9785    0.6668    0.0000 F   0  0  0  0  0  0  0  0  0  0  0  0
   10.5187   -2.0005    0.0000 F   0  0  0  0  0  0  0  0  0  0  0  0
   14.5197    0.3095    0.0000 F   0  0  0  0  0  0  0  0  0  0  0  0
   12.9797    2.9770    0.0000 F   0  0  0  0  0  0  0  0  0  0  0  0
    7.6449   -0.1032    0.0000 F   0  0  0  0  0  0  0  0  0  0  0  0
    9.1849   -2.7705    0.0000 F   0  0  0  0  0  0  0  0  0  0  0  0
   16.4171    3.1832    0.0000 F   0  0  0  0  0  0  0  0  0  0  0  0
   15.8534    1.0795    0.0000 F   0  0  0  0  0  0  0  0  0  0  0  0
   14.3134    3.7470    0.0000 F   0  0  0  0  0  0  0  0  0  0  0  0
    5.7475   -1.4368    0.0000 O   0  0  0  0  0  0  0  0  0  0  0  0
    7.0812   -3.7470    0.0000 O   0  0  0  0  0  0  0  0  0  0  0  0
   11.0824    0.1032    0.0000 C   0  0  0  0  0  0  0  0  0  0  0  0
   12.4161    0.8732    0.0000 C   0  0  0  0  0  0  0  0  0  0  0  0
    9.7485   -0.6668    0.0000 C   0  0  0  0  0  0  0  0  0  0  0  0
   13.7497    1.6432    0.0000 C   0  0  0  0  0  0  0  0  0  0  0  0
    8.4149   -1.4368    0.0000 C   0  0  0  0  0  0  0  0  0  0  0  0
   15.0834    2.4132    0.0000 C   0  0  0  0  0  0  0  0  0  0  0  0
    7.0812   -2.2070    0.0000 C   0  0  0  0  0  0  0  0  0  0  0  0
    4.4137   -2.2070    0.0000 C   0  0  0  0  0  0  0  0  0  0  0  0
    3.0800   -1.4368    0.0000 C   0  0  0  0  0  0  0  0  0  0  0  0
  1 16  1  0  0  0  0
  2 16  1  0  0  0  0
  3 17  1  0  0  0  0
  4 17  1  0  0  0  0
  5 18  1  0  0  0  0
  6 18  1  0  0  0  0
  7 19  1  0  0  0  0
  8 19  1  0  0  0  0
  9 20  1  0  0  0  0
 10 20  1  0  0  0  0
 11 21  1  0  0  0  0
 12 21  1  0  0  0  0
 13 21  1  0  0  0  0
 14 22  1  0  0  0  0
 14 23  1  0  0  0  0
 15 22  2  0  0  0  0
 16 17  1  0  0  0  0
 16 18  1  0  0  0  0
 17 19  1  0  0  0  0
 18 20  1  0  0  0  0
 19 21  1  0  0  0  0
 20 22  1  0  0  0  0
 23 24  1  0  0  0  0
M  END
>  <INPUT>
DTXSID80194350

>  <FOUND_BY>
DSSTox_Substance_Id

>  <DTXSID>
DTXSID80194350

>  <PREFERRED_NAME>
Ethyl perfluoroheptanoate

>  <CASRN>
41430-70-0

>  <INCHIKEY>
ZESCSNXJAROIJS-UHFFFAOYSA-N

>  <IUPAC_NAME>
Ethyl tridecafluoroheptanoate

>  <SMILES>
CCOC(=O)C(F)(F)C(F)(F)C(F)(F)C(F)(F)C(F)(F)C(F)(F)F

>  <INCHI_STRING>
InChI=1S/C9H5F13O2/c1-2-24-3(23)4(10,11)5(12,13)6(14,15)7(16,17)8(18,19)9(20,21)22/h2H2,1H3

>  <MOLECULAR_FORMULA>
C9H5F13O2

>  <AVERAGE_MASS>
392.116

>  <MONOISOTOPIC_MASS>
392.00819552

>  <MOL_FILE>
MOL_FILE

$$$$

  -INDIGO-02112615072D

 31 30  0  0  0  0  0  0  0  0999 V2000
    4.5941    0.6669    0.0000 P   0  0  0  0  0  0  0  0  0  0  0  0
   11.5242    0.8732    0.0000 F   0  0  0  0  0  0  0  0  0  0  0  0
   11.5243   -2.2070    0.0000 F   0  0  0  0  0  0  0  0  0  0  0  0
   13.0642    0.8732    0.0000 F   0  0  0  0  0  0  0  0  0  0  0  0
   13.0642   -2.2069    0.0000 F   0  0  0  0  0  0  0  0  0  0  0  0
    9.9842    0.8730    0.0000 F   0  0  0  0  0  0  0  0  0  0  0  0
    9.9842   -2.2070    0.0000 F   0  0  0  0  0  0  0  0  0  0  0  0
   14.6043    0.8732    0.0000 F   0  0  0  0  0  0  0  0  0  0  0  0
   14.6042   -2.2069    0.0000 F   0  0  0  0  0  0  0  0  0  0  0  0
    8.4440    0.8731    0.0000 F   0  0  0  0  0  0  0  0  0  0  0  0
    8.4440   -2.2068    0.0000 F   0  0  0  0  0  0  0  0  0  0  0  0
   16.1444   -2.2068    0.0000 F   0  0  0  0  0  0  0  0  0  0  0  0
   16.1443    0.8731    0.0000 F   0  0  0  0  0  0  0  0  0  0  0  0
   17.6844   -2.2068    0.0000 F   0  0  0  0  0  0  0  0  0  0  0  0
   17.6844    0.8731    0.0000 F   0  0  0  0  0  0  0  0  0  0  0  0
   20.7643   -0.6669    0.0000 F   0  0  0  0  0  0  0  0  0  0  0  0
   19.2244   -2.2069    0.0000 F   0  0  0  0  0  0  0  0  0  0  0  0
   19.2242    0.8732    0.0000 F   0  0  0  0  0  0  0  0  0  0  0  0
    3.0540    0.6669    0.0000 O   0  0  0  0  0  0  0  0  0  0  0  0
    4.5940    2.2068    0.0000 O   0  0  0  0  0  0  0  0  0  0  0  0
    4.5940   -0.8732    0.0000 O   0  0  0  0  0  0  0  0  0  0  0  0
   11.5241   -0.6668    0.0000 C   0  0  0  0  0  0  0  0  0  0  0  0
   13.0642   -0.6669    0.0000 C   0  0  0  0  0  0  0  0  0  0  0  0
    9.9843   -0.6669    0.0000 C   0  0  0  0  0  0  0  0  0  0  0  0
   14.6042   -0.6669    0.0000 C   0  0  0  0  0  0  0  0  0  0  0  0
    8.4441   -0.6668    0.0000 C   0  0  0  0  0  0  0  0  0  0  0  0
   16.1443   -0.6669    0.0000 C   0  0  0  0  0  0  0  0  0  0  0  0
    6.9042   -0.6669    0.0000 C   0  0  0  0  0  0  0  0  0  0  0  0
   17.6843   -0.6669    0.0000 C   0  0  0  0  0  0  0  0  0  0  0  0
    6.1341    0.6669    0.0000 C   0  0  0  0  0  0  0  0  0  0  0  0
   19.2244   -0.6670    0.0000 C   0  0  0  0  0  0  0  0  0  0  0  0
  1 19  1  0  0  0  0
  1 20  1  0  0  0  0
  1 21  2  0  0  0  0
  1 30  1  0  0  0  0
  2 22  1  0  0  0  0
  3 22  1  0  0  0  0
  4 23  1  0  0  0  0
  5 23  1  0  0  0  0
  6 24  1  0  0  0  0
  7 24  1  0  0  0  0
  8 25  1  0  0  0  0
  9 25  1  0  0  0  0
 10 26  1  0  0  0  0
 11 26  1  0  0  0  0
 12 27  1  0  0  0  0
 13 27  1  0  0  0  0
 14 29  1  0  0  0  0
 15 29  1  0  0  0  0
 16 31  1  0  0  0  0
 17 31  1  0  0  0  0
 18 31  1  0  0  0  0
 22 23  1  0  0  0  0
 22 24  1  0  0  0  0
 23 25  1  0  0  0  0
 24 26  1  0  0  0  0
 25 27  1  0  0  0  0
 26 28  1  0  0  0  0
 27 29  1  0  0  0  0
 28 30  1  0  0  0  0
 29 31  1  0  0  0  0
M  END
>  <INPUT>
DTXSID30627108

>  <FOUND_BY>
DSSTox_Substance_Id

>  <DTXSID>
DTXSID30627108

>  <PREFERRED_NAME>
((Perfluorooctyl)ethyl)phosphonic acid

>  <CASRN>
80220-63-9

>  <INCHIKEY>
CETXMCMQEXPPLV-UHFFFAOYSA-N

>  <IUPAC_NAME>
(3,3,4,4,5,5,6,6,7,7,8,8,9,9,10,10,10-Heptadecafluorodecyl)phosphonic acid

>  <SMILES>
OP(O)(=O)CCC(F)(F)C(F)(F)C(F)(F)C(F)(F)C(F)(F)C(F)(F)C(F)(F)C(F)(F)F

>  <INCHI_STRING>
InChI=1S/C10H6F17O3P/c11-3(12,1-2-31(28,29)30)4(13,14)5(15,16)6(17,18)7(19,20)8(21,22)9(23,24)10(25,26)27/h1-2H2,(H2,28,29,30)


>  <MOLECULAR_FORMULA>
C10H6F17O3P

>  <AVERAGE_MASS>
528.102

>  <MONOISOTOPIC_MASS>
527.978309822

>  <MOL_FILE>
MOL_FILE

$$$$

  -INDIGO-02112615072D

 14 13  0  0  0  0  0  0  0  0999 V2000
    3.0800   -1.9251    0.0000 Br  0  0  0  0  0  0  0  0  0  0  0  0
    4.9775    0.9486    0.0000 F   0  0  0  0  0  0  0  0  0  0  0  0
    6.5175   -1.7186    0.0000 F   0  0  0  0  0  0  0  0  0  0  0  0
    7.8512   -0.9486    0.0000 F   0  0  0  0  0  0  0  0  0  0  0  0
    6.3112    1.7186    0.0000 F   0  0  0  0  0  0  0  0  0  0  0  0
    3.6437    0.1786    0.0000 F   0  0  0  0  0  0  0  0  0  0  0  0
    5.1837   -2.4886    0.0000 F   0  0  0  0  0  0  0  0  0  0  0  0
    9.7485    1.9251    0.0000 F   0  0  0  0  0  0  0  0  0  0  0  0
    9.1849   -0.1786    0.0000 F   0  0  0  0  0  0  0  0  0  0  0  0
    7.6449    2.4886    0.0000 F   0  0  0  0  0  0  0  0  0  0  0  0
    5.7475   -0.3851    0.0000 C   0  0  0  0  0  0  0  0  0  0  0  0
    7.0812    0.3851    0.0000 C   0  0  0  0  0  0  0  0  0  0  0  0
    4.4137   -1.1551    0.0000 C   0  0  0  0  0  0  0  0  0  0  0  0
    8.4149    1.1551    0.0000 C   0  0  0  0  0  0  0  0  0  0  0  0
  1 13  1  0  0  0  0
  2 11  1  0  0  0  0
  3 11  1  0  0  0  0
  4 12  1  0  0  0  0
  5 12  1  0  0  0  0
  6 13  1  0  0  0  0
  7 13  1  0  0  0  0
  8 14  1  0  0  0  0
  9 14  1  0  0  0  0
 10 14  1  0  0  0  0
 11 12  1  0  0  0  0
 11 13  1  0  0  0  0
 12 14  1  0  0  0  0
M  END
>  <INPUT>
DTXSID30338641

>  <FOUND_BY>
DSSTox_Substance_Id

>  <DTXSID>
DTXSID30338641

>  <PREFERRED_NAME>
1-Bromoperfluorobutane

>  <CASRN>
375-48-4

>  <INCHIKEY>
CVEIKEYTQKDDQK-UHFFFAOYSA-N

>  <IUPAC_NAME>
1-Bromo-1,1,2,2,3,3,4,4,4-nonafluorobutane

>  <SMILES>
FC(F)(F)C(F)(F)C(F)(F)C(F)(F)Br

>  <INCHI_STRING>
InChI=1S/C4BrF9/c5-3(10,11)1(6,7)2(8,9)4(12,13)14

>  <MOLECULAR_FORMULA>
C4BrF9

>  <AVERAGE_MASS>
298.934

>  <MONOISOTOPIC_MASS>
297.903966

>  <MOL_FILE>
MOL_FILE

$$$$

  -INDIGO-02112615072D

 23 22  0  0  0  0  0  0  0  0999 V2000
    8.3766   -1.2939    0.0000 F   0  0  0  0  0  0  0  0  0  0  0  0
    8.3766    1.7861    0.0000 F   0  0  0  0  0  0  0  0  0  0  0  0
    9.9166   -1.2939    0.0000 F   0  0  0  0  0  0  0  0  0  0  0  0
    9.9166    1.7861    0.0000 F   0  0  0  0  0  0  0  0  0  0  0  0
    6.8366   -1.2939    0.0000 F   0  0  0  0  0  0  0  0  0  0  0  0
    6.8366    1.7861    0.0000 F   0  0  0  0  0  0  0  0  0  0  0  0
   11.4566   -1.2939    0.0000 F   0  0  0  0  0  0  0  0  0  0  0  0
   11.4566    1.7861    0.0000 F   0  0  0  0  0  0  0  0  0  0  0  0
    5.2966   -1.2939    0.0000 F   0  0  0  0  0  0  0  0  0  0  0  0
    5.2966    1.7861    0.0000 F   0  0  0  0  0  0  0  0  0  0  0  0
   12.9966   -1.2939    0.0000 F   0  0  0  0  0  0  0  0  0  0  0  0
   12.9966    1.7861    0.0000 F   0  0  0  0  0  0  0  0  0  0  0  0
    2.9866   -1.0876    0.0000 F   0  0  0  0  0  0  0  0  0  0  0  0
    2.9866    1.5797    0.0000 F   0  0  0  0  0  0  0  0  0  0  0  0
   15.3066    1.5797    0.0000 O   0  0  0  0  0  0  0  0  0  0  0  0
    8.3766    0.2461    0.0000 C   0  0  0  0  0  0  0  0  0  0  0  0
    9.9166    0.2461    0.0000 C   0  0  0  0  0  0  0  0  0  0  0  0
    6.8366    0.2461    0.0000 C   0  0  0  0  0  0  0  0  0  0  0  0
   11.4566    0.2461    0.0000 C   0  0  0  0  0  0  0  0  0  0  0  0
    5.2966    0.2461    0.0000 C   0  0  0  0  0  0  0  0  0  0  0  0
   12.9966    0.2461    0.0000 C   0  0  0  0  0  0  0  0  0  0  0  0
   14.5366    0.2461    0.0000 C   0  0  0  0  0  0  0  0  0  0  0  0
    3.7566    0.2461    0.0000 C   0  0  0  0  0  0  0  0  0  0  0  0
  1 16  1  0  0  0  0
  2 16  1  0  0  0  0
  3 17  1  0  0  0  0
  4 17  1  0  0  0  0
  5 18  1  0  0  0  0
  6 18  1  0  0  0  0
  7 19  1  0  0  0  0
  8 19  1  0  0  0  0
  9 20  1  0  0  0  0
 10 20  1  0  0  0  0
 11 21  1  0  0  0  0
 12 21  1  0  0  0  0
 13 23  1  0  0  0  0
 14 23  1  0  0  0  0
 15 22  1  0  0  0  0
 16 17  1  0  0  0  0
 16 18  1  0  0  0  0
 17 19  1  0  0  0  0
 18 20  1  0  0  0  0
 19 21  1  0  0  0  0
 20 23  1  0  0  0  0
 21 22  1  0  0  0  0
M  END
>  <INPUT>
DTXSID00379960

>  <FOUND_BY>
DSSTox_Substance_Id

>  <DTXSID>
DTXSID00379960

>  <PREFERRED_NAME>
1H,1H,8H-Perfluoro-1-octanol

>  <CASRN>
10331-08-5

>  <INCHIKEY>
ISIIJJQHILZBPB-UHFFFAOYSA-N

>  <IUPAC_NAME>
2,2,3,3,4,4,5,5,6,6,7,7,8,8-Tetradecafluorooctan-1-ol

>  <SMILES>
OCC(F)(F)C(F)(F)C(F)(F)C(F)(F)C(F)(F)C(F)(F)C(F)F

>  <INCHI_STRING>
InChI=1S/C8H4F14O/c9-2(10)4(13,14)6(17,18)8(21,22)7(19,20)5(15,16)3(11,12)1-23/h2,23H,1H2


>  <MOLECULAR_FORMULA>
C8H4F14O

>  <AVERAGE_MASS>
382.097

>  <MONOISOTOPIC_MASS>
382.003859031

>  <MOL_FILE>
MOL_FILE

$$$$

  -INDIGO-02112615072D

 16 15  0  0  0  0  0  0  0  0999 V2000
    8.9785    1.4368    0.0000 F   0  0  0  0  0  0  0  0  0  0  0  0
   10.5187   -1.2305    0.0000 F   0  0  0  0  0  0  0  0  0  0  0  0
   12.4161    1.6432    0.0000 F   0  0  0  0  0  0  0  0  0  0  0  0
   10.3124    2.2070    0.0000 F   0  0  0  0  0  0  0  0  0  0  0  0
   11.8524   -0.4605    0.0000 F   0  0  0  0  0  0  0  0  0  0  0  0
    3.0800    0.8732    0.0000 F   0  0  0  0  0  0  0  0  0  0  0  0
    3.6437   -1.2305    0.0000 F   0  0  0  0  0  0  0  0  0  0  0  0
    5.1837    1.4368    0.0000 F   0  0  0  0  0  0  0  0  0  0  0  0
    8.4149   -2.2070    0.0000 O   0  0  0  0  0  0  0  0  0  0  0  0
    5.7475   -2.2070    0.0000 O   0  0  0  0  0  0  0  0  0  0  0  0
    9.7485    0.1032    0.0000 C   0  0  0  0  0  0  0  0  0  0  0  0
    7.0812    0.1032    0.0000 C   0  0  0  0  0  0  0  0  0  0  0  0
    8.4149   -0.6668    0.0000 C   0  0  0  0  0  0  0  0  0  0  0  0
   11.0824    0.8732    0.0000 C   0  0  0  0  0  0  0  0  0  0  0  0
    5.7475   -0.6668    0.0000 C   0  0  0  0  0  0  0  0  0  0  0  0
    4.4137    0.1032    0.0000 C   0  0  0  0  0  0  0  0  0  0  0  0
  1 11  1  0  0  0  0
  2 11  1  0  0  0  0
  3 14  1  0  0  0  0
  4 14  1  0  0  0  0
  5 14  1  0  0  0  0
  6 16  1  0  0  0  0
  7 16  1  0  0  0  0
  8 16  1  0  0  0  0
  9 13  2  0  0  0  0
 10 15  2  0  0  0  0
 11 13  1  0  0  0  0
 11 14  1  0  0  0  0
 12 13  1  0  0  0  0
 12 15  1  0  0  0  0
 15 16  1  0  0  0  0
M  END
>  <INPUT>
DTXSID90174941

>  <FOUND_BY>
DSSTox_Substance_Id

>  <DTXSID>
DTXSID90174941

>  <PREFERRED_NAME>
3H,3H-Perfluoro-2,4-hexanedione

>  <CASRN>
20825-07-4

>  <INCHIKEY>
MGKBKOFWQWACLM-UHFFFAOYSA-N

>  <IUPAC_NAME>
1,1,1,5,5,6,6,6-Octafluorohexane-2,4-dione

>  <SMILES>
FC(F)(F)C(=O)CC(=O)C(F)(F)C(F)(F)F

>  <INCHI_STRING>
InChI=1S/C6H2F8O2/c7-4(8,6(12,13)14)2(15)1-3(16)5(9,10)11/h1H2

>  <MOLECULAR_FORMULA>
C6H2F8O2

>  <AVERAGE_MASS>
258.067

>  <MONOISOTOPIC_MASS>
257.992704608

>  <MOL_FILE>
MOL_FILE

$$$$

  -INDIGO-02112615072D

 24 23  0  0  0  0  0  0  0  0999 V2000
   10.3124    0.9486    0.0000 F   0  0  0  0  0  0  0  0  0  0  0  0
   11.8524   -1.7186    0.0000 F   0  0  0  0  0  0  0  0  0  0  0  0
    7.6449   -1.7186    0.0000 F   0  0  0  0  0  0  0  0  0  0  0  0
    9.1849    0.9486    0.0000 F   0  0  0  0  0  0  0  0  0  0  0  0
   11.6461    1.7186    0.0000 F   0  0  0  0  0  0  0  0  0  0  0  0
   13.1861   -0.9486    0.0000 F   0  0  0  0  0  0  0  0  0  0  0  0
    6.3112   -0.9486    0.0000 F   0  0  0  0  0  0  0  0  0  0  0  0
    7.8512    1.7186    0.0000 F   0  0  0  0  0  0  0  0  0  0  0  0
   15.8534    1.7186    0.0000 F   0  0  0  0  0  0  0  0  0  0  0  0
   14.3134   -0.9486    0.0000 F   0  0  0  0  0  0  0  0  0  0  0  0
    3.0800   -0.3851    0.0000 F   0  0  0  0  0  0  0  0  0  0  0  0
    3.6437    1.7186    0.0000 F   0  0  0  0  0  0  0  0  0  0  0  0
    5.1837   -0.9486    0.0000 F   0  0  0  0  0  0  0  0  0  0  0  0
    9.7485   -1.1551    0.0000 O   0  0  0  0  0  0  0  0  0  0  0  0
   13.7497    1.1551    0.0000 O   0  0  0  0  0  0  0  0  0  0  0  0
    5.7475    1.1551    0.0000 O   0  0  0  0  0  0  0  0  0  0  0  0
   17.7509    0.3851    0.0000 O   0  0  0  0  0  0  0  0  0  0  0  0
   11.0824   -0.3851    0.0000 C   0  0  0  0  0  0  0  0  0  0  0  0
   12.4161    0.3851    0.0000 C   0  0  0  0  0  0  0  0  0  0  0  0
    8.4149   -0.3851    0.0000 C   0  0  0  0  0  0  0  0  0  0  0  0
    7.0812    0.3851    0.0000 C   0  0  0  0  0  0  0  0  0  0  0  0
   15.0834    0.3851    0.0000 C   0  0  0  0  0  0  0  0  0  0  0  0
   16.4171   -0.3851    0.0000 C   0  0  0  0  0  0  0  0  0  0  0  0
    4.4137    0.3851    0.0000 C   0  0  0  0  0  0  0  0  0  0  0  0
  1 18  1  0  0  0  0
  2 18  1  0  0  0  0
  3 20  1  0  0  0  0
  4 20  1  0  0  0  0
  5 19  1  0  0  0  0
  6 19  1  0  0  0  0
  7 21  1  0  0  0  0
  8 21  1  0  0  0  0
  9 22  1  0  0  0  0
 10 22  1  0  0  0  0
 11 24  1  0  0  0  0
 12 24  1  0  0  0  0
 13 24  1  0  0  0  0
 14 18  1  0  0  0  0
 14 20  1  0  0  0  0
 15 19  1  0  0  0  0
 15 22  1  0  0  0  0
 16 21  1  0  0  0  0
 16 24  1  0  0  0  0
 17 23  1  0  0  0  0
 18 19  1  0  0  0  0
 20 21  1  0  0  0  0
 22 23  1  0  0  0  0
M  END
>  <INPUT>
DTXSID40380797

>  <FOUND_BY>
DSSTox_Substance_Id

>  <DTXSID>
DTXSID40380797

>  <PREFERRED_NAME>
1H,1H-Perfluoro-3,6,9-trioxadecan-1-ol

>  <CASRN>
147492-57-7

>  <INCHIKEY>
PGUFRYZQAPBGDW-UHFFFAOYSA-N

>  <IUPAC_NAME>
2,2-Difluoro-2-{1,1,2,2-tetrafluoro-2-[1,1,2,2-tetrafluoro-2-(trifluoromethoxy)ethoxy]ethoxy}ethan-1-ol

>  <SMILES>
OCC(F)(F)OC(F)(F)C(F)(F)OC(F)(F)C(F)(F)OC(F)(F)F

>  <INCHI_STRING>
InChI=1S/C7H3F13O4/c8-2(9,1-21)22-3(10,11)4(12,13)23-5(14,15)6(16,17)24-7(18,19)20/h21H,1H2

>  <MOLECULAR_FORMULA>
C7H3F13O4

>  <AVERAGE_MASS>
398.076

>  <MONOISOTOPIC_MASS>
397.982374696

>  <MOL_FILE>
MOL_FILE

$$$$

  -INDIGO-02112615072D

 27 27  0  0  0  0  0  0  0  0999 V2000
    5.9537    2.5456    0.0000 F   0  0  0  0  0  0  0  0  0  0  0  0
    3.8500   -1.0983    0.0000 F   0  0  0  0  0  0  0  0  0  0  0  0
    9.5975   -1.0983    0.0000 F   0  0  0  0  0  0  0  0  0  0  0  0
    4.6202    1.7756    0.0000 F   0  0  0  0  0  0  0  0  0  0  0  0
    3.8500    0.4417    0.0000 F   0  0  0  0  0  0  0  0  0  0  0  0
    9.5975    0.4417    0.0000 F   0  0  0  0  0  0  0  0  0  0  0  0
    8.8275    1.7756    0.0000 F   0  0  0  0  0  0  0  0  0  0  0  0
    5.9537   -3.2021    0.0000 F   0  0  0  0  0  0  0  0  0  0  0  0
    7.4937   -3.2021    0.0000 F   0  0  0  0  0  0  0  0  0  0  0  0
    3.8500   -3.7656    0.0000 F   0  0  0  0  0  0  0  0  0  0  0  0
    3.0800   -2.4321    0.0000 F   0  0  0  0  0  0  0  0  0  0  0  0
    5.1468   -3.8791    0.0000 F   0  0  0  0  0  0  0  0  0  0  0  0
    9.5975   -3.7656    0.0000 F   0  0  0  0  0  0  0  0  0  0  0  0
   10.3675   -2.4321    0.0000 F   0  0  0  0  0  0  0  0  0  0  0  0
    8.3007   -3.8791    0.0000 F   0  0  0  0  0  0  0  0  0  0  0  0
    8.2637    3.8791    0.0000 F   0  0  0  0  0  0  0  0  0  0  0  0
    6.7237    3.8791    0.0000 F   0  0  0  0  0  0  0  0  0  0  0  0
    9.0104    2.8129    0.0000 F   0  0  0  0  0  0  0  0  0  0  0  0
    6.7237    1.2117    0.0000 C   0  0  0  0  0  0  0  0  0  0  0  0
    5.3902   -1.0983    0.0000 C   0  0  0  0  0  0  0  0  0  0  0  0
    8.0575   -1.0983    0.0000 C   0  0  0  0  0  0  0  0  0  0  0  0
    5.3902    0.4417    0.0000 C   0  0  0  0  0  0  0  0  0  0  0  0
    8.0575    0.4417    0.0000 C   0  0  0  0  0  0  0  0  0  0  0  0
    6.7237   -1.8683    0.0000 C   0  0  0  0  0  0  0  0  0  0  0  0
    7.4937    2.5456    0.0000 C   0  0  0  0  0  0  0  0  0  0  0  0
    4.6202   -2.4321    0.0000 C   0  0  0  0  0  0  0  0  0  0  0  0
    8.8275   -2.4321    0.0000 C   0  0  0  0  0  0  0  0  0  0  0  0
  1 19  1  0  0  0  0
  2 20  1  0  0  0  0
  3 21  1  0  0  0  0
  4 22  1  0  0  0  0
  5 22  1  0  0  0  0
  6 23  1  0  0  0  0
  7 23  1  0  0  0  0
  8 24  1  0  0  0  0
  9 24  1  0  0  0  0
 10 26  1  0  0  0  0
 11 26  1  0  0  0  0
 12 26  1  0  0  0  0
 13 27  1  0  0  0  0
 14 27  1  0  0  0  0
 15 27  1  0  0  0  0
 16 25  1  0  0  0  0
 17 25  1  0  0  0  0
 18 25  1  0  0  0  0
 19 22  1  0  0  0  0
 19 23  1  0  0  0  0
 19 25  1  0  0  0  0
 20 22  1  0  0  0  0
 20 24  1  0  0  0  0
 20 26  1  0  0  0  0
 21 23  1  0  0  0  0
 21 24  1  0  0  0  0
 21 27  1  0  0  0  0
M  END
>  <INPUT>
DTXSID80380039

>  <FOUND_BY>
DSSTox_Substance_Id

>  <DTXSID>
DTXSID80380039

>  <PREFERRED_NAME>
Perfluoro-1,3,5-trimethylcyclohexane

>  <CASRN>
374-76-5

>  <INCHIKEY>
MGOFOLPXKULBGG-UHFFFAOYSA-N

>  <IUPAC_NAME>
1,1,2,3,3,4,5,5,6-Nonafluoro-2,4,6-tris(trifluoromethyl)cyclohexane

>  <SMILES>
FC(F)(F)C1(F)C(F)(F)C(F)(C(F)(F)F)C(F)(F)C(F)(C(F)(F)F)C1(F)F

>  <INCHI_STRING>
InChI=1S/C9F18/c10-1(7(19,20)21)4(13,14)2(11,8(22,23)24)6(17,18)3(12,5(1,15)16)9(25,26)27

>  <MOLECULAR_FORMULA>
C9F18

>  <AVERAGE_MASS>
450.07

>  <MONOISOTOPIC_MASS>
449.971256934

>  <MOL_FILE>
MOL_FILE

$$$$

  -INDIGO-02112615072D

 32 31  0  0  0  0  0  0  0  0999 V2000
   -9.2416   -0.3281    0.0000 C   0  0  0  0  0  0  0  0  0  0  0  0
   -7.7016   -0.3281    0.0000 C   0  0  0  0  0  0  0  0  0  0  0  0
   -6.1616   -0.3281    0.0000 C   0  0  0  0  0  0  0  0  0  0  0  0
   -4.6216   -0.3281    0.0000 C   0  0  0  0  0  0  0  0  0  0  0  0
   -3.0816   -0.3281    0.0000 C   0  0  0  0  0  0  0  0  0  0  0  0
   -1.5417   -0.3281    0.0000 C   0  0  0  0  0  0  0  0  0  0  0  0
   -0.0017   -0.3281    0.0000 C   0  0  0  0  0  0  0  0  0  0  0  0
    1.5384   -0.3280    0.0000 C   0  0  0  0  0  0  0  0  0  0  0  0
    3.0784   -0.3280    0.0000 C   0  0  0  0  0  0  0  0  0  0  0  0
    3.8484    1.0057    0.0000 C   0  0  0  0  0  0  0  0  0  0  0  0
    5.3883    1.0057    0.0000 O   0  0  0  0  0  0  0  0  0  0  0  0
  -10.7817   -0.3281    0.0000 F   0  0  0  0  0  0  0  0  0  0  0  0
   -9.2416   -1.8681    0.0000 F   0  0  0  0  0  0  0  0  0  0  0  0
   -9.2416    1.2119    0.0000 F   0  0  0  0  0  0  0  0  0  0  0  0
    6.1584    2.3394    0.0000 P   0  0  0  0  0  0  0  0  0  0  0  0
    6.9284    3.6730    0.0000 O   0  0  0  0  0  0  0  0  0  0  0  0
    7.4921    1.5694    0.0000 O   0  0  0  0  0  0  0  0  0  0  0  0
    4.8247    3.1094    0.0000 O   0  0  0  0  0  0  0  0  0  0  0  0
   -7.7016   -1.8681    0.0000 F   0  0  0  0  0  0  0  0  0  0  0  0
   -7.7016    1.2119    0.0000 F   0  0  0  0  0  0  0  0  0  0  0  0
   -6.1616   -1.8681    0.0000 F   0  0  0  0  0  0  0  0  0  0  0  0
   -6.1616    1.2119    0.0000 F   0  0  0  0  0  0  0  0  0  0  0  0
   -4.6216   -1.8681    0.0000 F   0  0  0  0  0  0  0  0  0  0  0  0
   -4.6216    1.2119    0.0000 F   0  0  0  0  0  0  0  0  0  0  0  0
   -3.0816   -1.8681    0.0000 F   0  0  0  0  0  0  0  0  0  0  0  0
   -3.0816    1.2119    0.0000 F   0  0  0  0  0  0  0  0  0  0  0  0
   -1.5416   -1.8681    0.0000 F   0  0  0  0  0  0  0  0  0  0  0  0
   -1.5417    1.2119    0.0000 F   0  0  0  0  0  0  0  0  0  0  0  0
   -0.0016   -1.8681    0.0000 F   0  0  0  0  0  0  0  0  0  0  0  0
   -0.0017    1.2119    0.0000 F   0  0  0  0  0  0  0  0  0  0  0  0
    1.5384   -1.8681    0.0000 F   0  0  0  0  0  0  0  0  0  0  0  0
    1.5384    1.2120    0.0000 F   0  0  0  0  0  0  0  0  0  0  0  0
  1 12  1  0  0  0  0
  1  2  1  0  0  0  0
  1 13  1  0  0  0  0
  1 14  1  0  0  0  0
  2 19  1  0  0  0  0
  2 20  1  0  0  0  0
  2  3  1  0  0  0  0
  3 21  1  0  0  0  0
  3 22  1  0  0  0  0
  3  4  1  0  0  0  0
  4  5  1  0  0  0  0
  4 23  1  0  0  0  0
  4 24  1  0  0  0  0
  5  6  1  0  0  0  0
  5 25  1  0  0  0  0
  5 26  1  0  0  0  0
  6  7  1  0  0  0  0
  6 27  1  0  0  0  0
  6 28  1  0  0  0  0
  7 29  1  0  0  0  0
  7 30  1  0  0  0  0
  7  8  1  0  0  0  0
  8  9  1  0  0  0  0
  8 31  1  0  0  0  0
  8 32  1  0  0  0  0
  9 10  1  0  0  0  0
 10 11  1  0  0  0  0
 11 15  1  0  0  0  0
 15 17  1  0  0  0  0
 15 18  1  0  0  0  0
 15 16  2  0  0  0  0
M  END
>  <INPUT>
DTXSID60874027

>  <FOUND_BY>
DSSTox_Substance_Id

>  <DTXSID>
DTXSID60874027

>  <PREFERRED_NAME>
2-(Perfluorooctyl)ethyl dihydrogen phosphate

>  <CASRN>
57678-03-2

>  <INCHIKEY>
MIABSAQIFYEDJP-UHFFFAOYSA-N

>  <IUPAC_NAME>
3,3,4,4,5,5,6,6,7,7,8,8,9,9,10,10,10-Heptadecafluorodecyl dihydrogen phosphate

>  <SMILES>
OP(O)(=O)OCCC(F)(F)C(F)(F)C(F)(F)C(F)(F)C(F)(F)C(F)(F)C(F)(F)C(F)(F)F

>  <INCHI_STRING>
InChI=1S/C10H6F17O4P/c11-3(12,1-2-31-32(28,29)30)4(13,14)5(15,16)6(17,18)7(19,20)8(21,22)9(23,24)10(25,26)27/h1-2H2,(H2,28,29,30)


>  <MOLECULAR_FORMULA>
C10H6F17O4P

>  <AVERAGE_MASS>
544.101

>  <MONOISOTOPIC_MASS>
543.973224442

>  <MOL_FILE>
MOL_FILE

$$$$

  -INDIGO-02112615072D

 17 16  0  0  0  0  0  0  0  0999 V2000
   -1.5400   -0.0042    0.0000 C   0  0  0  0  0  0  0  0  0  0  0  0
    0.0000   -0.0001    0.0000 C   0  0  0  0  0  0  0  0  0  0  0  0
    1.5400    0.0042    0.0000 C   0  0  0  0  0  0  0  0  0  0  0  0
    3.0800    0.0085    0.0000 C   0  0  0  0  0  0  0  0  0  0  0  0
   -3.0800   -0.0085    0.0000 S   0  0  0  0  0  0  0  0  0  0  0  0
   -4.6200   -0.0127    0.0000 O   0  0  0  0  0  0  0  0  0  0  0  0
   -3.0757   -1.5485    0.0000 O   0  0  0  0  0  0  0  0  0  0  0  0
   -3.0842    1.5315    0.0000 O   0  0  0  0  0  0  0  0  0  0  0  0
   -1.5357   -1.5442    0.0000 F   0  0  0  0  0  0  0  0  0  0  0  0
   -1.5442    1.5358    0.0000 F   0  0  0  0  0  0  0  0  0  0  0  0
    0.0043   -1.5399    0.0000 F   0  0  0  0  0  0  0  0  0  0  0  0
   -0.0042    1.5399    0.0000 F   0  0  0  0  0  0  0  0  0  0  0  0
    1.5357    1.5442    0.0000 F   0  0  0  0  0  0  0  0  0  0  0  0
    1.5443   -1.5358    0.0000 F   0  0  0  0  0  0  0  0  0  0  0  0
    3.0843   -1.5315    0.0000 F   0  0  0  0  0  0  0  0  0  0  0  0
    3.0757    1.5485    0.0000 F   0  0  0  0  0  0  0  0  0  0  0  0
    4.6200    0.0127    0.0000 F   0  0  0  0  0  0  0  0  0  0  0  0
  1  2  1  0  0  0  0
  1  5  1  0  0  0  0
  1  9  1  0  0  0  0
  1 10  1  0  0  0  0
  2  3  1  0  0  0  0
  2 11  1  0  0  0  0
  2 12  1  0  0  0  0
  3  4  1  0  0  0  0
  3 13  1  0  0  0  0
  3 14  1  0  0  0  0
  4 15  1  0  0  0  0
  4 16  1  0  0  0  0
  4 17  1  0  0  0  0
  5  6  1  0  0  0  0
  5  7  2  0  0  0  0
  5  8  2  0  0  0  0
M  END
>  <INPUT>
DTXSID5030030

>  <FOUND_BY>
DSSTox_Substance_Id

>  <DTXSID>
DTXSID5030030

>  <PREFERRED_NAME>
Perfluorobutanesulfonic acid

>  <CASRN>
375-73-5

>  <INCHIKEY>
JGTNAGYHADQMCM-UHFFFAOYSA-N

>  <IUPAC_NAME>
Nonafluorobutane-1-sulfonic acid

>  <SMILES>
OS(=O)(=O)C(F)(F)C(F)(F)C(F)(F)C(F)(F)F

>  <INCHI_STRING>
InChI=1S/C4HF9O3S/c5-1(6,3(9,10)11)2(7,8)4(12,13)17(14,15)16/h(H,14,15,16)


>  <MOLECULAR_FORMULA>
C4HF9O3S

>  <AVERAGE_MASS>
300.09

>  <MONOISOTOPIC_MASS>
299.950268533

>  <MOL_FILE>
MOL_FILE

$$$$
