REMARK  Name = 4PHU_A_2401_2YB
REMARK  11 active torsions:
REMARK  status: ('A' for Active; 'I' for Inactive)
REMARK    1  A    between atoms: C_1  and  O_18
REMARK    2  A    between atoms: C_2  and  C_3
REMARK    3  A    between atoms: C_2  and  O_18
REMARK    4  A    between atoms: C_3  and  C_4
REMARK    5  A    between atoms: C_4  and  S_19
REMARK    6  A    between atoms: C_8  and  C_23
REMARK    7  A    between atoms: C_10  and  C_11
REMARK    8  A    between atoms: C_11  and  O_26
REMARK    9  A    between atoms: C_12  and  O_26
REMARK   10  A    between atoms: C_14  and  C_29
REMARK   11  A    between atoms: C_29  and  C_30
REMARK                            x       y       z     vdW  Elec       q    Type
REMARK                         _______ _______ _______ _____ _____    ______ ____
ROOT
ATOM      1  C   UNL     1     -51.576  -2.001  57.399  0.00  0.00    +0.000 C 
ATOM      2  C   UNL     1     -49.272  -2.714  56.014  0.00  0.00    +0.000 C 
ATOM      3  C   UNL     1     -49.155  -2.082  57.245  0.00  0.00    +0.000 C 
ATOM      4  C   UNL     1     -51.686  -2.629  56.152  0.00  0.00    +0.000 C 
ATOM      5  C   UNL     1     -50.530  -2.979  55.476  0.00  0.00    +0.000 C 
ATOM      6  C   UNL     1     -50.304  -1.733  57.950  0.00  0.00    +0.000 C 
ENDROOT
BRANCH   1  14
ATOM      7  C   UNL     1     -54.997  -0.871  59.686  0.00  0.00    +0.000 C 
ATOM      8  C   UNL     1     -54.633  -2.207  59.599  0.00  0.00    +0.000 C 
ATOM      9  C   UNL     1     -53.178  -4.055  58.816  0.00  0.00    +0.000 C 
ATOM     10  C   UNL     1     -52.391   0.844  57.556  0.00  0.00    +0.000 C 
ATOM     11  C   UNL     1     -53.153  -0.256  58.262  0.00  0.00    +0.000 C 
ATOM     12  C   UNL     1     -54.253   0.097  59.014  0.00  0.00    +0.000 C 
ATOM     13  C   UNL     1     -53.530  -2.582  58.862  0.00  0.00    +0.000 C 
ATOM     14  C   UNL     1     -52.779  -1.608  58.184  0.00  0.00    +0.000 C 
BRANCH   7  15
ATOM     15  O   UNL     1     -56.090  -0.531  60.425  0.00  0.00    +0.000 OA
BRANCH  15  16
ATOM     16  C   UNL     1     -56.344   0.857  60.702  0.00  0.00    +0.000 C 
BRANCH  16  17
ATOM     17  C   UNL     1     -57.779   1.002  61.205  0.00  0.00    +0.000 C 
BRANCH  17  18
ATOM     18  C   UNL     1     -57.736   1.058  62.732  0.00  0.00    +0.000 C 
BRANCH  18  20
ATOM     19  C   UNL     1     -60.581   1.275  62.705  0.00  0.00    +0.000 C 
ATOM     20  S   UNL     1     -59.229   0.337  63.485  0.00  0.00    +0.000 S 
ATOM     21  O   UNL     1     -59.343  -1.034  63.108  0.00  0.00    +0.000 OA
ATOM     22  O   UNL     1     -59.177   0.665  64.873  0.00  0.00    +0.000 OA
ENDBRANCH  18  20
ENDBRANCH  17  18
ENDBRANCH  16  17
ENDBRANCH  15  16
ENDBRANCH   7  15
ENDBRANCH   1  14
BRANCH   3  23
ATOM     23  C   UNL     1     -47.784  -1.791  57.818  0.00  0.00    +0.000 C 
BRANCH  23  24
ATOM     24  O   UNL     1     -47.360  -2.908  58.618  0.00  0.00    +0.000 OA
BRANCH  24  25
ATOM     25  C   UNL     1     -46.108  -2.989  59.147  0.00  0.00    +0.000 C 
ATOM     26  C   UNL     1     -44.033  -1.985  59.809  0.00  0.00    +0.000 C 
ATOM     27  C   UNL     1     -42.246  -3.612  60.817  0.00  0.00    +0.000 C 
ATOM     28  C   UNL     1     -45.308  -1.855  59.273  0.00  0.00    +0.000 C 
ATOM     29  C   UNL     1     -43.569  -3.214  60.219  0.00  0.00    +0.000 C 
ATOM     30  C   UNL     1     -42.431  -5.117  61.153  0.00  0.00    +0.000 C 
ATOM     31  O   UNL     1     -43.698  -5.466  60.548  0.00  0.00    +0.000 OA
ATOM     32  C   UNL     1     -44.348  -4.355  60.098  0.00  0.00    +0.000 C 
ATOM     33  C   UNL     1     -45.633  -4.231  59.564  0.00  0.00    +0.000 C 
BRANCH  27  34
ATOM     34  C   UNL     1     -41.221  -3.391  59.709  0.00  0.00    +0.000 C 
BRANCH  34  35
ATOM     35  C   UNL     1     -39.802  -3.304  60.195  0.00  0.00    +0.000 C 
ATOM     36  O   UNL     1     -39.435  -3.002  61.467  0.00  0.00    +0.000 OA
ATOM     37  O   UNL     1     -38.974  -3.532  59.343  0.00  0.00    +0.000 OA
ENDBRANCH  34  35
ENDBRANCH  27  34
ENDBRANCH  24  25
ENDBRANCH  23  24
ENDBRANCH   3  23
TORSDOF 11
