REMARK  Name = 9KL5_A_601_RTO
REMARK  7 active torsions:
REMARK  status: ('A' for Active; 'I' for Inactive)
REMARK    1  A    between atoms: C_3  and  C_12
REMARK    2  A    between atoms: C_5  and  C_6
REMARK    3  A    between atoms: C_6  and  N_14
REMARK    4  A    between atoms: C_7  and  C_8
REMARK    5  A    between atoms: C_7  and  N_14
REMARK    6  A    between atoms: C_10  and  S_19
REMARK    7  A    between atoms: N_14  and  S_19
REMARK                            x       y       z     vdW  Elec       q    Type
REMARK                         _______ _______ _______ _____ _____    ______ ____
ROOT
ATOM      1  O   UNL     1     130.846 130.205 131.515  0.00  0.00    +0.000 OA
ATOM      2  O   UNL     1     128.962 129.649 130.403  0.00  0.00    +0.000 OA
ATOM      3  S   UNL     1     129.496 129.705 131.763  0.00  0.00    +0.000 S 
ENDROOT
BRANCH   3   6
ATOM      4  C   UNL     1     128.591 125.874 132.835  0.00  0.00    +0.000 C 
ATOM      5  C   UNL     1     130.629 126.460 133.958  0.00  0.00    +0.000 C 
ATOM      6  C   UNL     1     129.548 128.054 132.527  0.00  0.00    +0.000 C 
ATOM      7  C   UNL     1     128.549 127.131 132.254  0.00  0.00    +0.000 C 
ATOM      8  C   UNL     1     129.630 125.540 133.688  0.00  0.00    +0.000 C 
ATOM      9  C   UNL     1     130.589 127.718 133.377  0.00  0.00    +0.000 C 
BRANCH   8  10
ATOM     10  C   UNL     1     129.678 124.156 134.328  0.00  0.00    +0.000 C 
ATOM     11  O   UNL     1     128.633 123.650 134.813  0.00  0.00    +0.000 OA
ATOM     12  O   UNL     1     130.763 123.524 134.373  0.00  0.00    +0.000 OA
ENDBRANCH   8  10
ENDBRANCH   3   6
BRANCH   3  13
ATOM     13  N   UNL     1     128.606 130.793 132.740  0.00  0.00    +0.000 NA
BRANCH  13  14
ATOM     14  C   UNL     1     129.207 132.059 133.135  0.00  0.00    +0.000 C 
BRANCH  14  16
ATOM     15  C   UNL     1     130.000 134.244 132.110  0.00  0.00    +0.000 C 
ATOM     16  C   UNL     1     128.981 133.108 132.044  0.00  0.00    +0.000 C 
ENDBRANCH  14  16
ENDBRANCH  13  14
BRANCH  13  17
ATOM     17  C   UNL     1     127.335 130.379 133.319  0.00  0.00    +0.000 C 
BRANCH  17  18
ATOM     18  C   UNL     1     126.170 130.842 132.444  0.00  0.00    +0.000 C 
ATOM     19  C   UNL     1     124.837 130.812 133.188  0.00  0.00    +0.000 C 
ENDBRANCH  17  18
ENDBRANCH  13  17
ENDBRANCH   3  13
TORSDOF 7
