REMARK  Name = 2CEO_A_1395_T44
REMARK  5 active torsions:
REMARK  status: ('A' for Active; 'I' for Inactive)
REMARK    1  A    between atoms: C_1  and  C_7
REMARK    2  A    between atoms: C_4  and  O_17
REMARK    3  A    between atoms: C_7  and  CA_8
REMARK    4  A    between atoms: CA_8  and  C_9
REMARK    5  A    between atoms: C_10  and  O_17
REMARK                            x       y       z     vdW  Elec       q    Type
REMARK                         _______ _______ _______ _____ _____    ______ ____
ROOT
ATOM      1  C   UNL     1      20.333   1.961 -20.544  0.00  0.00    +0.000 C 
ATOM      2  C   UNL     1      20.989   1.389 -21.647  0.00  0.00    +0.000 C 
ATOM      3  C   UNL     1      20.750   1.819 -22.949  0.00  0.00    +0.000 C 
ATOM      4  C   UNL     1      19.769   2.901 -23.151  0.00  0.00    +0.000 C 
ATOM      5  C   UNL     1      19.101   3.467 -21.969  0.00  0.00    +0.000 C 
ATOM      6  C   UNL     1      19.394   2.985 -20.695  0.00  0.00    +0.000 C 
ATOM      7  I   UNL     1      21.716   0.990 -24.608  0.00  0.00    +0.000 I 
ATOM      8  I   UNL     1      17.741   4.989 -22.352  0.00  0.00    +0.000 I 
ENDROOT
BRANCH   1   9
ATOM      9  C   UNL     1      20.631   1.445 -19.154  0.00  0.00    +0.000 C 
BRANCH   9  10
ATOM     10  CA  UNL     1      21.887   2.074 -18.550  0.00  0.00    +0.000 C 
ATOM     11  N   UNL     1      21.608   3.451 -18.173  0.00  0.00    +0.000 NA
BRANCH  10  12
ATOM     12  C   UNL     1      23.081   1.965 -19.475  0.00  0.00    +0.000 C 
ATOM     13  O   UNL     1      23.641   3.007 -19.885  0.00  0.00    +0.000 OA
ATOM     14  OXT UNL     1      23.489   0.826 -19.803  0.00  0.00    +0.000 OA
ENDBRANCH  10  12
ENDBRANCH   9  10
ENDBRANCH   1   9
BRANCH   4  15
ATOM     15  O   UNL     1      19.474   3.390 -24.396  0.00  0.00    +0.000 OA
BRANCH  15  16
ATOM     16  C   UNL     1      20.289   4.307 -25.020  0.00  0.00    +0.000 C 
ATOM     17  C   UNL     1      21.170   5.100 -24.277  0.00  0.00    +0.000 C 
ATOM     18  C   UNL     1      22.003   6.032 -24.892  0.00  0.00    +0.000 C 
ATOM     19  C   UNL     1      21.957   6.187 -26.360  0.00  0.00    +0.000 C 
ATOM     20  C   UNL     1      21.014   5.329 -27.094  0.00  0.00    +0.000 C 
ATOM     21  C   UNL     1      20.215   4.418 -26.411  0.00  0.00    +0.000 C 
ATOM     22  O   UNL     1      22.747   7.075 -27.027  0.00  0.00    +0.000 OA
ATOM     23  I   UNL     1      23.319   7.212 -23.789  0.00  0.00    +0.000 I 
ATOM     24  I   UNL     1      20.932   5.535 -29.155  0.00  0.00    +0.000 I 
ENDBRANCH  15  16
ENDBRANCH   4  15
TORSDOF 5
