REMARK  Name = 2F7I_B_325_26C
REMARK  2 active torsions:
REMARK  status: ('A' for Active; 'I' for Inactive)
REMARK    1  A    between atoms: C_2  and  C_4
REMARK    2  A    between atoms: C_8  and  C_10
REMARK                            x       y       z     vdW  Elec       q    Type
REMARK                         _______ _______ _______ _____ _____    ______ ____
ROOT
ATOM      1  C   UNL     1      21.645  85.101  26.950  0.00  0.00    +0.000 C 
ATOM      2  C   UNL     1      20.965  86.132  26.259  0.00  0.00    +0.000 C 
ATOM      3  C   UNL     1      22.323  84.079  26.236  0.00  0.00    +0.000 C 
ATOM      4  C   UNL     1      22.336  84.092  24.917  0.00  0.00    +0.000 C 
ATOM      5  C   UNL     1      21.639  85.124  24.154  0.00  0.00    +0.000 C 
ATOM      6  C   UNL     1      20.961  86.145  24.889  0.00  0.00    +0.000 C 
ENDROOT
BRANCH   5   7
ATOM      7  C   UNL     1      21.636  85.136  22.776  0.00  0.00    +0.000 C 
ATOM      8  C   UNL     1      21.638  83.908  21.955  0.00  0.00    +0.000 C 
ATOM      9  F   UNL     1      21.603  82.670  22.572  0.00  0.00    +0.000 F 
ATOM     10  C   UNL     1      21.651  83.938  20.636  0.00  0.00    +0.000 C 
ATOM     11  C   UNL     1      21.631  85.160  19.993  0.00  0.00    +0.000 C 
ATOM     12  C   UNL     1      21.613  86.370  20.710  0.00  0.00    +0.000 C 
ATOM     13  C   UNL     1      21.615  86.371  22.083  0.00  0.00    +0.000 C 
ATOM     14  F   UNL     1      21.666  87.603  22.722  0.00  0.00    +0.000 F 
ENDBRANCH   5   7
BRANCH   1  16
ATOM     15  O   UNL     1      20.976  86.101  29.121  0.00  0.00    +0.000 OA
ATOM     16  C   UNL     1      21.643  85.098  28.436  0.00  0.00    +0.000 C 
ATOM     17  O   UNL     1      22.241  84.194  29.050  0.00  0.00    +0.000 OA
ENDBRANCH   1  16
TORSDOF 2
