REMARK  Name = 9IRW_A_701_URC
REMARK  0 active torsions:
REMARK  status: ('A' for Active; 'I' for Inactive)
REMARK                            x       y       z     vdW  Elec       q    Type
REMARK                         _______ _______ _______ _____ _____    ______ ____
ROOT
ATOM      1  N   UNL     1     137.184 136.323 137.828  0.00  0.00    +0.000 NA
ATOM      2  C   UNL     1     138.352 135.703 137.149  0.00  0.00    +0.000 C 
ATOM      3  C   UNL     1     135.855 135.775 137.627  0.00  0.00    +0.000 C 
ATOM      4  N   UNL     1     138.166 134.524 136.265  0.00  0.00    +0.000 NA
ATOM      5  O   UNL     1     139.435 136.152 137.315  0.00  0.00    +0.000 OA
ATOM      6  C   UNL     1     136.816 133.966 136.059  0.00  0.00    +0.000 C 
ATOM      7  C   UNL     1     135.660 134.573 136.725  0.00  0.00    +0.000 C 
ATOM      8  N   UNL     1     136.333 132.832 135.260  0.00  0.00    +0.000 NA
ATOM      9  O   UNL     1     134.926 136.270 138.169  0.00  0.00    +0.000 OA
ATOM     10  N   UNL     1     134.463 133.815 136.339  0.00  0.00    +0.000 NA
ATOM     11  C   UNL     1     134.881 132.740 135.433  0.00  0.00    +0.000 C 
ATOM     12  O   UNL     1     134.172 131.937 134.929  0.00  0.00    +0.000 OA
ENDROOT
TORSDOF 0
