MODEL 1
REMARK VINA RESULT:   -10.286      0.000      0.000
REMARK INTER + INTRA:         -18.442
REMARK INTER:                 -17.003
REMARK INTRA:                  -1.439
REMARK UNBOUND:                -1.542
REMARK  Name = 4PHU_A_2401_2YB
REMARK  11 active torsions:
REMARK  status: ('A' for Active; 'I' for Inactive)
REMARK    1  A    between atoms: C_1  and  O_18
REMARK    2  A    between atoms: C_2  and  C_3
REMARK    3  A    between atoms: C_2  and  O_18
REMARK    4  A    between atoms: C_3  and  C_4
REMARK    5  A    between atoms: C_4  and  S_19
REMARK    6  A    between atoms: C_8  and  C_23
REMARK    7  A    between atoms: C_10  and  C_11
REMARK    8  A    between atoms: C_11  and  O_26
REMARK    9  A    between atoms: C_12  and  O_26
REMARK   10  A    between atoms: C_14  and  C_29
REMARK   11  A    between atoms: C_29  and  C_30
REMARK                            x       y       z     vdW  Elec       q    Type
REMARK                         _______ _______ _______ _____ _____    ______ ____
ROOT
ATOM      1  C   UNL     1     -51.078  -1.801  57.144  0.00  0.00    +0.000 C 
ATOM      2  C   UNL     1     -48.866  -2.653  55.690  0.00  0.00    +0.000 C 
ATOM      3  C   UNL     1     -48.671  -1.997  56.899  0.00  0.00    +0.000 C 
ATOM      4  C   UNL     1     -51.266  -2.453  55.919  0.00  0.00    +0.000 C 
ATOM      5  C   UNL     1     -50.155  -2.873  55.208  0.00  0.00    +0.000 C 
ATOM      6  C   UNL     1     -49.774  -1.578  57.638  0.00  0.00    +0.000 C 
ENDROOT
BRANCH   1  14
ATOM      7  C   UNL     1     -54.350  -0.449  59.527  0.00  0.00    +0.000 C 
ATOM      8  C   UNL     1     -53.901  -1.757  59.645  0.00  0.00    +0.000 C 
ATOM      9  C   UNL     1     -52.395  -3.638  59.063  0.00  0.00    +0.000 C 
ATOM     10  C   UNL     1     -52.076   0.976  56.869  0.00  0.00    +0.000 C 
ATOM     11  C   UNL     1     -52.691  -0.012  57.835  0.00  0.00    +0.000 C 
ATOM     12  C   UNL     1     -53.740   0.415  58.620  0.00  0.00    +0.000 C 
ATOM     13  C   UNL     1     -52.845  -2.203  58.879  0.00  0.00    +0.000 C 
ATOM     14  C   UNL     1     -52.230  -1.333  57.964  0.00  0.00    +0.000 C 
BRANCH   7  15
ATOM     15  O   UNL     1     -55.392  -0.036  60.301  0.00  0.00    +0.000 OA
BRANCH  15  16
ATOM     16  C   UNL     1     -55.597   1.372  60.507  0.00  0.00    +0.000 C 
BRANCH  16  17
ATOM     17  C   UNL     1     -56.132   1.587  61.922  0.00  0.00    +0.000 C 
BRANCH  17  18
ATOM     18  C   UNL     1     -56.011   3.076  62.246  0.00  0.00    +0.000 C 
BRANCH  18  20
ATOM     19  C   UNL     1     -55.246   3.615  64.941  0.00  0.00    +0.000 C 
ATOM     20  S   UNL     1     -56.716   3.481  63.875  0.00  0.00    +0.000 S 
ATOM     21  O   UNL     1     -57.360   4.752  63.818  0.00  0.00    +0.000 OA
ATOM     22  O   UNL     1     -57.478   2.343  64.277  0.00  0.00    +0.000 OA
ENDBRANCH  18  20
ENDBRANCH  17  18
ENDBRANCH  16  17
ENDBRANCH  15  16
ENDBRANCH   7  15
ENDBRANCH   1  14
BRANCH   3  23
ATOM     23  C   UNL     1     -47.267  -1.756  57.410  0.00  0.00    +0.000 C 
BRANCH  23  24
ATOM     24  O   UNL     1     -47.201  -2.122  58.799  0.00  0.00    +0.000 OA
BRANCH  24  25
ATOM     25  C   UNL     1     -46.036  -2.488  59.400  0.00  0.00    +0.000 C 
ATOM     26  C   UNL     1     -44.021  -1.954  60.587  0.00  0.00    +0.000 C 
ATOM     27  C   UNL     1     -42.462  -3.979  61.160  0.00  0.00    +0.000 C 
ATOM     28  C   UNL     1     -45.206  -1.538  59.994  0.00  0.00    +0.000 C 
ATOM     29  C   UNL     1     -43.674  -3.286  60.597  0.00  0.00    +0.000 C 
ATOM     30  C   UNL     1     -42.761  -5.486  60.936  0.00  0.00    +0.000 C 
ATOM     31  O   UNL     1     -43.952  -5.497  60.115  0.00  0.00    +0.000 OA
ATOM     32  C   UNL     1     -44.484  -4.246  60.007  0.00  0.00    +0.000 C 
ATOM     33  C   UNL     1     -45.679  -3.835  59.413  0.00  0.00    +0.000 C 
BRANCH  27  34
ATOM     34  C   UNL     1     -41.290  -3.492  60.314  0.00  0.00    +0.000 C 
BRANCH  34  35
ATOM     35  C   UNL     1     -40.271  -2.695  61.077  0.00  0.00    +0.000 C 
ATOM     36  O   UNL     1     -40.564  -1.736  61.993  0.00  0.00    +0.000 OA
ATOM     37  O   UNL     1     -39.125  -2.977  60.812  0.00  0.00    +0.000 OA
ENDBRANCH  34  35
ENDBRANCH  27  34
ENDBRANCH  24  25
ENDBRANCH  23  24
ENDBRANCH   3  23
TORSDOF 11
ENDMDL
MODEL 2
REMARK VINA RESULT:   -10.110      4.854      6.826
REMARK INTER + INTRA:         -18.154
REMARK INTER:                 -16.489
REMARK INTRA:                  -1.665
REMARK UNBOUND:                -1.542
REMARK  Name = 4PHU_A_2401_2YB
REMARK  11 active torsions:
REMARK  status: ('A' for Active; 'I' for Inactive)
REMARK    1  A    between atoms: C_1  and  O_18
REMARK    2  A    between atoms: C_2  and  C_3
REMARK    3  A    between atoms: C_2  and  O_18
REMARK    4  A    between atoms: C_3  and  C_4
REMARK    5  A    between atoms: C_4  and  S_19
REMARK    6  A    between atoms: C_8  and  C_23
REMARK    7  A    between atoms: C_10  and  C_11
REMARK    8  A    between atoms: C_11  and  O_26
REMARK    9  A    between atoms: C_12  and  O_26
REMARK   10  A    between atoms: C_14  and  C_29
REMARK   11  A    between atoms: C_29  and  C_30
REMARK                            x       y       z     vdW  Elec       q    Type
REMARK                         _______ _______ _______ _____ _____    ______ ____
ROOT
ATOM      1  C   UNL     1     -51.491  -2.256  57.284  0.00  0.00    +0.000 C 
ATOM      2  C   UNL     1     -49.495  -0.744  58.494  0.00  0.00    +0.000 C 
ATOM      3  C   UNL     1     -49.153  -1.922  57.843  0.00  0.00    +0.000 C 
ATOM      4  C   UNL     1     -51.830  -1.073  57.952  0.00  0.00    +0.000 C 
ATOM      5  C   UNL     1     -50.825  -0.331  58.548  0.00  0.00    +0.000 C 
ATOM      6  C   UNL     1     -50.145  -2.678  57.224  0.00  0.00    +0.000 C 
ENDROOT
BRANCH   1  14
ATOM      7  C   UNL     1     -54.412  -4.696  55.352  0.00  0.00    +0.000 C 
ATOM      8  C   UNL     1     -53.626  -3.832  54.603  0.00  0.00    +0.000 C 
ATOM      9  C   UNL     1     -51.847  -2.125  54.343  0.00  0.00    +0.000 C 
ATOM     10  C   UNL     1     -53.207  -4.073  58.878  0.00  0.00    +0.000 C 
ATOM     11  C   UNL     1     -53.324  -3.962  57.374  0.00  0.00    +0.000 C 
ATOM     12  C   UNL     1     -54.255  -4.754  56.736  0.00  0.00    +0.000 C 
ATOM     13  C   UNL     1     -52.681  -3.039  55.218  0.00  0.00    +0.000 C 
ATOM     14  C   UNL     1     -52.521  -3.096  56.612  0.00  0.00    +0.000 C 
BRANCH   7  15
ATOM     15  O   UNL     1     -55.335  -5.469  54.716  0.00  0.00    +0.000 OA
BRANCH  15  16
ATOM     16  C   UNL     1     -55.162  -5.759  53.318  0.00  0.00    +0.000 C 
BRANCH  16  17
ATOM     17  C   UNL     1     -54.200  -6.937  53.177  0.00  0.00    +0.000 C 
BRANCH  17  18
ATOM     18  C   UNL     1     -54.707  -8.066  54.075  0.00  0.00    +0.000 C 
BRANCH  18  20
ATOM     19  C   UNL     1     -54.186  -8.742  56.797  0.00  0.00    +0.000 C 
ATOM     20  S   UNL     1     -53.397  -8.721  55.156  0.00  0.00    +0.000 S 
ATOM     21  O   UNL     1     -53.088 -10.061  54.778  0.00  0.00    +0.000 OA
ATOM     22  O   UNL     1     -52.352  -7.749  55.156  0.00  0.00    +0.000 OA
ENDBRANCH  18  20
ENDBRANCH  17  18
ENDBRANCH  16  17
ENDBRANCH  15  16
ENDBRANCH   7  15
ENDBRANCH   1  14
BRANCH   3  23
ATOM     23  C   UNL     1     -47.707  -2.367  57.797  0.00  0.00    +0.000 C 
BRANCH  23  24
ATOM     24  O   UNL     1     -46.950  -1.613  58.759  0.00  0.00    +0.000 OA
BRANCH  24  25
ATOM     25  C   UNL     1     -45.830  -2.110  59.354  0.00  0.00    +0.000 C 
ATOM     26  C   UNL     1     -43.775  -1.814  60.554  0.00  0.00    +0.000 C 
ATOM     27  C   UNL     1     -42.438  -4.000  61.089  0.00  0.00    +0.000 C 
ATOM     28  C   UNL     1     -44.909  -1.264  59.968  0.00  0.00    +0.000 C 
ATOM     29  C   UNL     1     -43.569  -3.174  60.538  0.00  0.00    +0.000 C 
ATOM     30  C   UNL     1     -42.892  -5.464  60.834  0.00  0.00    +0.000 C 
ATOM     31  O   UNL     1     -44.075  -5.334  60.012  0.00  0.00    +0.000 OA
ATOM     32  C   UNL     1     -44.472  -4.032  59.928  0.00  0.00    +0.000 C 
ATOM     33  C   UNL     1     -45.617  -3.487  59.341  0.00  0.00    +0.000 C 
BRANCH  27  34
ATOM     34  C   UNL     1     -41.219  -3.622  60.254  0.00  0.00    +0.000 C 
BRANCH  34  35
ATOM     35  C   UNL     1     -40.199  -2.803  60.993  0.00  0.00    +0.000 C 
ATOM     36  O   UNL     1     -40.489  -1.876  61.942  0.00  0.00    +0.000 OA
ATOM     37  O   UNL     1     -39.055  -3.036  60.675  0.00  0.00    +0.000 OA
ENDBRANCH  34  35
ENDBRANCH  27  34
ENDBRANCH  24  25
ENDBRANCH  23  24
ENDBRANCH   3  23
TORSDOF 11
ENDMDL
MODEL 3
REMARK VINA RESULT:   -10.031      0.689      1.601
REMARK INTER + INTRA:         -18.023
REMARK INTER:                 -16.584
REMARK INTRA:                  -1.439
REMARK UNBOUND:                -1.542
REMARK  Name = 4PHU_A_2401_2YB
REMARK  11 active torsions:
REMARK  status: ('A' for Active; 'I' for Inactive)
REMARK    1  A    between atoms: C_1  and  O_18
REMARK    2  A    between atoms: C_2  and  C_3
REMARK    3  A    between atoms: C_2  and  O_18
REMARK    4  A    between atoms: C_3  and  C_4
REMARK    5  A    between atoms: C_4  and  S_19
REMARK    6  A    between atoms: C_8  and  C_23
REMARK    7  A    between atoms: C_10  and  C_11
REMARK    8  A    between atoms: C_11  and  O_26
REMARK    9  A    between atoms: C_12  and  O_26
REMARK   10  A    between atoms: C_14  and  C_29
REMARK   11  A    between atoms: C_29  and  C_30
REMARK                            x       y       z     vdW  Elec       q    Type
REMARK                         _______ _______ _______ _____ _____    ______ ____
ROOT
ATOM      1  C   UNL     1     -50.978  -1.744  57.245  0.00  0.00    +0.000 C 
ATOM      2  C   UNL     1     -48.694  -2.591  55.903  0.00  0.00    +0.000 C 
ATOM      3  C   UNL     1     -48.567  -2.008  57.157  0.00  0.00    +0.000 C 
ATOM      4  C   UNL     1     -51.097  -2.323  55.975  0.00  0.00    +0.000 C 
ATOM      5  C   UNL     1     -49.951  -2.741  55.321  0.00  0.00    +0.000 C 
ATOM      6  C   UNL     1     -49.707  -1.593  57.840  0.00  0.00    +0.000 C 
ENDROOT
BRANCH   1  14
ATOM      7  C   UNL     1     -54.423  -0.435  59.396  0.00  0.00    +0.000 C 
ATOM      8  C   UNL     1     -53.751   0.447  58.563  0.00  0.00    +0.000 C 
ATOM      9  C   UNL     1     -51.953   1.042  56.963  0.00  0.00    +0.000 C 
ATOM     10  C   UNL     1     -52.397  -3.606  59.062  0.00  0.00    +0.000 C 
ATOM     11  C   UNL     1     -52.844  -2.175  58.860  0.00  0.00    +0.000 C 
ATOM     12  C   UNL     1     -53.963  -1.743  59.539  0.00  0.00    +0.000 C 
ATOM     13  C   UNL     1     -52.636   0.034  57.865  0.00  0.00    +0.000 C 
ATOM     14  C   UNL     1     -52.171  -1.283  58.008  0.00  0.00    +0.000 C 
BRANCH   7  15
ATOM     15  O   UNL     1     -55.524   0.002  60.071  0.00  0.00    +0.000 OA
BRANCH  15  16
ATOM     16  C   UNL     1     -55.464   1.256  60.770  0.00  0.00    +0.000 C 
BRANCH  16  17
ATOM     17  C   UNL     1     -56.855   1.584  61.309  0.00  0.00    +0.000 C 
BRANCH  17  18
ATOM     18  C   UNL     1     -56.745   1.738  62.826  0.00  0.00    +0.000 C 
BRANCH  18  20
ATOM     19  C   UNL     1     -57.041   3.349  65.162  0.00  0.00    +0.000 C 
ATOM     20  S   UNL     1     -56.904   3.474  63.350  0.00  0.00    +0.000 S 
ATOM     21  O   UNL     1     -55.710   4.185  63.027  0.00  0.00    +0.000 OA
ATOM     22  O   UNL     1     -58.145   3.941  62.822  0.00  0.00    +0.000 OA
ENDBRANCH  18  20
ENDBRANCH  17  18
ENDBRANCH  16  17
ENDBRANCH  15  16
ENDBRANCH   7  15
ENDBRANCH   1  14
BRANCH   3  23
ATOM     23  C   UNL     1     -47.196  -1.842  57.778  0.00  0.00    +0.000 C 
BRANCH  23  24
ATOM     24  O   UNL     1     -47.097  -2.688  58.937  0.00  0.00    +0.000 OA
BRANCH  24  25
ATOM     25  C   UNL     1     -45.906  -2.967  59.533  0.00  0.00    +0.000 C 
ATOM     26  C   UNL     1     -43.912  -2.284  60.678  0.00  0.00    +0.000 C 
ATOM     27  C   UNL     1     -42.232  -4.196  61.289  0.00  0.00    +0.000 C 
ATOM     28  C   UNL     1     -45.127  -1.955  60.089  0.00  0.00    +0.000 C 
ATOM     29  C   UNL     1     -43.488  -3.592  60.721  0.00  0.00    +0.000 C 
ATOM     30  C   UNL     1     -42.444  -5.725  61.111  0.00  0.00    +0.000 C 
ATOM     31  O   UNL     1     -43.642  -5.828  60.306  0.00  0.00    +0.000 OA
ATOM     32  C   UNL     1     -44.247  -4.614  60.170  0.00  0.00    +0.000 C 
ATOM     33  C   UNL     1     -45.471  -4.291  59.579  0.00  0.00    +0.000 C 
BRANCH  27  34
ATOM     34  C   UNL     1     -41.100  -3.667  60.414  0.00  0.00    +0.000 C 
BRANCH  34  35
ATOM     35  C   UNL     1     -40.184  -2.703  61.113  0.00  0.00    +0.000 C 
ATOM     36  O   UNL     1     -40.591  -1.713  61.948  0.00  0.00    +0.000 OA
ATOM     37  O   UNL     1     -39.010  -2.876  60.874  0.00  0.00    +0.000 OA
ENDBRANCH  34  35
ENDBRANCH  27  34
ENDBRANCH  24  25
ENDBRANCH  23  24
ENDBRANCH   3  23
TORSDOF 11
ENDMDL
MODEL 4
REMARK VINA RESULT:    -9.905      2.246      3.060
REMARK INTER + INTRA:         -17.817
REMARK INTER:                 -16.269
REMARK INTRA:                  -1.548
REMARK UNBOUND:                -1.542
REMARK  Name = 4PHU_A_2401_2YB
REMARK  11 active torsions:
REMARK  status: ('A' for Active; 'I' for Inactive)
REMARK    1  A    between atoms: C_1  and  O_18
REMARK    2  A    between atoms: C_2  and  C_3
REMARK    3  A    between atoms: C_2  and  O_18
REMARK    4  A    between atoms: C_3  and  C_4
REMARK    5  A    between atoms: C_4  and  S_19
REMARK    6  A    between atoms: C_8  and  C_23
REMARK    7  A    between atoms: C_10  and  C_11
REMARK    8  A    between atoms: C_11  and  O_26
REMARK    9  A    between atoms: C_12  and  O_26
REMARK   10  A    between atoms: C_14  and  C_29
REMARK   11  A    between atoms: C_29  and  C_30
REMARK                            x       y       z     vdW  Elec       q    Type
REMARK                         _______ _______ _______ _____ _____    ______ ____
ROOT
ATOM      1  C   UNL     1     -51.033  -1.879  57.161  0.00  0.00    +0.000 C 
ATOM      2  C   UNL     1     -48.820  -2.646  55.661  0.00  0.00    +0.000 C 
ATOM      3  C   UNL     1     -48.625  -2.033  56.892  0.00  0.00    +0.000 C 
ATOM      4  C   UNL     1     -51.221  -2.488  55.914  0.00  0.00    +0.000 C 
ATOM      5  C   UNL     1     -50.110  -2.865  55.180  0.00  0.00    +0.000 C 
ATOM      6  C   UNL     1     -49.728  -1.657  57.654  0.00  0.00    +0.000 C 
ENDROOT
BRANCH   1  14
ATOM      7  C   UNL     1     -54.362  -0.685  59.550  0.00  0.00    +0.000 C 
ATOM      8  C   UNL     1     -53.758   0.228  58.698  0.00  0.00    +0.000 C 
ATOM      9  C   UNL     1     -52.073   0.893  57.005  0.00  0.00    +0.000 C 
ATOM     10  C   UNL     1     -52.304  -3.808  59.018  0.00  0.00    +0.000 C 
ATOM     11  C   UNL     1     -52.788  -2.382  58.877  0.00  0.00    +0.000 C 
ATOM     12  C   UNL     1     -53.870  -1.987  59.634  0.00  0.00    +0.000 C 
ATOM     13  C   UNL     1     -52.681  -0.147  57.923  0.00  0.00    +0.000 C 
ATOM     14  C   UNL     1     -52.184  -1.458  58.007  0.00  0.00    +0.000 C 
BRANCH   7  15
ATOM     15  O   UNL     1     -55.426  -0.285  60.300  0.00  0.00    +0.000 OA
BRANCH  15  16
ATOM     16  C   UNL     1     -56.701  -0.920  60.102  0.00  0.00    +0.000 C 
BRANCH  16  17
ATOM     17  C   UNL     1     -57.486  -0.863  61.411  0.00  0.00    +0.000 C 
BRANCH  17  18
ATOM     18  C   UNL     1     -58.302  -2.150  61.524  0.00  0.00    +0.000 C 
BRANCH  18  20
ATOM     19  C   UNL     1     -56.255  -4.133  61.659  0.00  0.00    +0.000 C 
ATOM     20  S   UNL     1     -57.544  -3.342  62.673  0.00  0.00    +0.000 S 
ATOM     21  O   UNL     1     -56.919  -2.643  63.748  0.00  0.00    +0.000 OA
ATOM     22  O   UNL     1     -58.553  -4.305  62.976  0.00  0.00    +0.000 OA
ENDBRANCH  18  20
ENDBRANCH  17  18
ENDBRANCH  16  17
ENDBRANCH  15  16
ENDBRANCH   7  15
ENDBRANCH   1  14
BRANCH   3  23
ATOM     23  C   UNL     1     -47.220  -1.792  57.402  0.00  0.00    +0.000 C 
BRANCH  23  24
ATOM     24  O   UNL     1     -47.158  -2.140  58.796  0.00  0.00    +0.000 OA
BRANCH  24  25
ATOM     25  C   UNL     1     -45.996  -2.511  59.401  0.00  0.00    +0.000 C 
ATOM     26  C   UNL     1     -43.982  -1.987  60.593  0.00  0.00    +0.000 C 
ATOM     27  C   UNL     1     -42.437  -4.019  61.175  0.00  0.00    +0.000 C 
ATOM     28  C   UNL     1     -45.163  -1.565  59.995  0.00  0.00    +0.000 C 
ATOM     29  C   UNL     1     -43.643  -3.320  60.606  0.00  0.00    +0.000 C 
ATOM     30  C   UNL     1     -42.744  -5.525  60.953  0.00  0.00    +0.000 C 
ATOM     31  O   UNL     1     -43.932  -5.530  60.129  0.00  0.00    +0.000 OA
ATOM     32  C   UNL     1     -44.456  -4.277  60.017  0.00  0.00    +0.000 C 
ATOM     33  C   UNL     1     -45.648  -3.860  59.418  0.00  0.00    +0.000 C 
BRANCH  27  34
ATOM     34  C   UNL     1     -41.260  -3.540  60.331  0.00  0.00    +0.000 C 
BRANCH  34  35
ATOM     35  C   UNL     1     -40.268  -2.699  61.083  0.00  0.00    +0.000 C 
ATOM     36  O   UNL     1     -40.592  -1.730  61.977  0.00  0.00    +0.000 OA
ATOM     37  O   UNL     1     -39.112  -2.954  60.829  0.00  0.00    +0.000 OA
ENDBRANCH  34  35
ENDBRANCH  27  34
ENDBRANCH  24  25
ENDBRANCH  23  24
ENDBRANCH   3  23
TORSDOF 11
ENDMDL
MODEL 5
REMARK VINA RESULT:    -9.819      4.461      5.960
REMARK INTER + INTRA:         -17.675
REMARK INTER:                 -16.287
REMARK INTRA:                  -1.388
REMARK UNBOUND:                -1.542
REMARK  Name = 4PHU_A_2401_2YB
REMARK  11 active torsions:
REMARK  status: ('A' for Active; 'I' for Inactive)
REMARK    1  A    between atoms: C_1  and  O_18
REMARK    2  A    between atoms: C_2  and  C_3
REMARK    3  A    between atoms: C_2  and  O_18
REMARK    4  A    between atoms: C_3  and  C_4
REMARK    5  A    between atoms: C_4  and  S_19
REMARK    6  A    between atoms: C_8  and  C_23
REMARK    7  A    between atoms: C_10  and  C_11
REMARK    8  A    between atoms: C_11  and  O_26
REMARK    9  A    between atoms: C_12  and  O_26
REMARK   10  A    between atoms: C_14  and  C_29
REMARK   11  A    between atoms: C_29  and  C_30
REMARK                            x       y       z     vdW  Elec       q    Type
REMARK                         _______ _______ _______ _____ _____    ______ ____
ROOT
ATOM      1  C   UNL     1     -51.335  -2.246  57.537  0.00  0.00    +0.000 C 
ATOM      2  C   UNL     1     -49.269  -0.646  58.491  0.00  0.00    +0.000 C 
ATOM      3  C   UNL     1     -48.966  -1.872  57.913  0.00  0.00    +0.000 C 
ATOM      4  C   UNL     1     -51.633  -1.013  58.131  0.00  0.00    +0.000 C 
ATOM      5  C   UNL     1     -50.594  -0.228  58.600  0.00  0.00    +0.000 C 
ATOM      6  C   UNL     1     -49.994  -2.673  57.421  0.00  0.00    +0.000 C 
ENDROOT
BRANCH   1  14
ATOM      7  C   UNL     1     -54.367  -4.826  56.001  0.00  0.00    +0.000 C 
ATOM      8  C   UNL     1     -53.574  -4.095  55.129  0.00  0.00    +0.000 C 
ATOM      9  C   UNL     1     -51.751  -2.496  54.611  0.00  0.00    +0.000 C 
ATOM     10  C   UNL     1     -53.067  -3.778  59.390  0.00  0.00    +0.000 C 
ATOM     11  C   UNL     1     -53.214  -3.865  57.886  0.00  0.00    +0.000 C 
ATOM     12  C   UNL     1     -54.182  -4.704  57.377  0.00  0.00    +0.000 C 
ATOM     13  C   UNL     1     -52.592  -3.258  55.615  0.00  0.00    +0.000 C 
ATOM     14  C   UNL     1     -52.404  -3.134  57.002  0.00  0.00    +0.000 C 
BRANCH   7  15
ATOM     15  O   UNL     1     -55.327  -5.647  55.490  0.00  0.00    +0.000 OA
BRANCH  15  16
ATOM     16  C   UNL     1     -55.113  -7.069  55.506  0.00  0.00    +0.000 C 
BRANCH  16  17
ATOM     17  C   UNL     1     -56.099  -7.702  56.486  0.00  0.00    +0.000 C 
BRANCH  17  18
ATOM     18  C   UNL     1     -55.324  -8.691  57.357  0.00  0.00    +0.000 C 
BRANCH  18  20
ATOM     19  C   UNL     1     -54.257  -9.354  59.919  0.00  0.00    +0.000 C 
ATOM     20  S   UNL     1     -55.588  -8.390  59.133  0.00  0.00    +0.000 S 
ATOM     21  O   UNL     1     -55.386  -7.008  59.421  0.00  0.00    +0.000 OA
ATOM     22  O   UNL     1     -56.845  -8.983  59.458  0.00  0.00    +0.000 OA
ENDBRANCH  18  20
ENDBRANCH  17  18
ENDBRANCH  16  17
ENDBRANCH  15  16
ENDBRANCH   7  15
ENDBRANCH   1  14
BRANCH   3  23
ATOM     23  C   UNL     1     -47.524  -2.321  57.806  0.00  0.00    +0.000 C 
BRANCH  23  24
ATOM     24  O   UNL     1     -46.729  -1.583  58.749  0.00  0.00    +0.000 OA
BRANCH  24  25
ATOM     25  C   UNL     1     -45.638  -2.123  59.360  0.00  0.00    +0.000 C 
ATOM     26  C   UNL     1     -43.596  -1.907  60.599  0.00  0.00    +0.000 C 
ATOM     27  C   UNL     1     -42.344  -4.143  61.139  0.00  0.00    +0.000 C 
ATOM     28  C   UNL     1     -44.699  -1.315  59.998  0.00  0.00    +0.000 C 
ATOM     29  C   UNL     1     -43.436  -3.274  60.574  0.00  0.00    +0.000 C 
ATOM     30  C   UNL     1     -42.843  -5.588  60.863  0.00  0.00    +0.000 C 
ATOM     31  O   UNL     1     -44.005  -5.410  60.020  0.00  0.00    +0.000 OA
ATOM     32  C   UNL     1     -44.357  -4.095  59.941  0.00  0.00    +0.000 C 
ATOM     33  C   UNL     1     -45.471  -3.507  59.338  0.00  0.00    +0.000 C 
BRANCH  27  34
ATOM     34  C   UNL     1     -41.098  -3.799  60.329  0.00  0.00    +0.000 C 
BRANCH  34  35
ATOM     35  C   UNL     1     -40.078  -2.996  61.085  0.00  0.00    +0.000 C 
ATOM     36  O   UNL     1     -40.322  -2.320  62.237  0.00  0.00    +0.000 OA
ATOM     37  O   UNL     1     -38.979  -2.992  60.579  0.00  0.00    +0.000 OA
ENDBRANCH  34  35
ENDBRANCH  27  34
ENDBRANCH  24  25
ENDBRANCH  23  24
ENDBRANCH   3  23
TORSDOF 11
ENDMDL
MODEL 6
REMARK VINA RESULT:    -9.680      4.956      6.770
REMARK INTER + INTRA:         -17.447
REMARK INTER:                 -16.400
REMARK INTRA:                  -1.047
REMARK UNBOUND:                -1.542
REMARK  Name = 4PHU_A_2401_2YB
REMARK  11 active torsions:
REMARK  status: ('A' for Active; 'I' for Inactive)
REMARK    1  A    between atoms: C_1  and  O_18
REMARK    2  A    between atoms: C_2  and  C_3
REMARK    3  A    between atoms: C_2  and  O_18
REMARK    4  A    between atoms: C_3  and  C_4
REMARK    5  A    between atoms: C_4  and  S_19
REMARK    6  A    between atoms: C_8  and  C_23
REMARK    7  A    between atoms: C_10  and  C_11
REMARK    8  A    between atoms: C_11  and  O_26
REMARK    9  A    between atoms: C_12  and  O_26
REMARK   10  A    between atoms: C_14  and  C_29
REMARK   11  A    between atoms: C_29  and  C_30
REMARK                            x       y       z     vdW  Elec       q    Type
REMARK                         _______ _______ _______ _____ _____    ______ ____
ROOT
ATOM      1  C   UNL     1     -51.094  -2.249  57.325  0.00  0.00    +0.000 C 
ATOM      2  C   UNL     1     -49.099  -0.766  58.572  0.00  0.00    +0.000 C 
ATOM      3  C   UNL     1     -48.753  -1.914  57.872  0.00  0.00    +0.000 C 
ATOM      4  C   UNL     1     -51.437  -1.096  58.042  0.00  0.00    +0.000 C 
ATOM      5  C   UNL     1     -50.432  -0.368  58.656  0.00  0.00    +0.000 C 
ATOM      6  C   UNL     1     -49.745  -2.655  57.234  0.00  0.00    +0.000 C 
ENDROOT
BRANCH   1  14
ATOM      7  C   UNL     1     -54.073  -4.572  55.340  0.00  0.00    +0.000 C 
ATOM      8  C   UNL     1     -54.005  -4.572  56.726  0.00  0.00    +0.000 C 
ATOM      9  C   UNL     1     -53.030  -3.859  58.891  0.00  0.00    +0.000 C 
ATOM     10  C   UNL     1     -51.223  -2.293  54.364  0.00  0.00    +0.000 C 
ATOM     11  C   UNL     1     -52.185  -3.079  55.228  0.00  0.00    +0.000 C 
ATOM     12  C   UNL     1     -53.160  -3.824  54.599  0.00  0.00    +0.000 C 
ATOM     13  C   UNL     1     -53.045  -3.826  57.376  0.00  0.00    +0.000 C 
ATOM     14  C   UNL     1     -52.124  -3.072  56.631  0.00  0.00    +0.000 C 
BRANCH   7  15
ATOM     15  O   UNL     1     -55.035  -5.317  54.726  0.00  0.00    +0.000 OA
BRANCH  15  16
ATOM     16  C   UNL     1     -54.968  -5.512  53.303  0.00  0.00    +0.000 C 
BRANCH  16  17
ATOM     17  C   UNL     1     -54.710  -6.991  53.023  0.00  0.00    +0.000 C 
BRANCH  17  18
ATOM     18  C   UNL     1     -53.537  -7.436  53.896  0.00  0.00    +0.000 C 
BRANCH  18  20
ATOM     19  C   UNL     1     -53.924  -8.334  56.577  0.00  0.00    +0.000 C 
ATOM     20  S   UNL     1     -53.929  -8.933  54.857  0.00  0.00    +0.000 S 
ATOM     21  O   UNL     1     -55.242  -9.384  54.530  0.00  0.00    +0.000 OA
ATOM     22  O   UNL     1     -52.831  -9.826  54.673  0.00  0.00    +0.000 OA
ENDBRANCH  18  20
ENDBRANCH  17  18
ENDBRANCH  16  17
ENDBRANCH  15  16
ENDBRANCH   7  15
ENDBRANCH   1  14
BRANCH   3  23
ATOM     23  C   UNL     1     -47.303  -2.343  57.793  0.00  0.00    +0.000 C 
BRANCH  23  24
ATOM     24  O   UNL     1     -46.601  -1.848  58.946  0.00  0.00    +0.000 OA
BRANCH  24  25
ATOM     25  C   UNL     1     -45.487  -2.459  59.437  0.00  0.00    +0.000 C 
ATOM     26  C   UNL     1     -43.212  -2.396  60.193  0.00  0.00    +0.000 C 
ATOM     27  C   UNL     1     -42.192  -4.690  60.936  0.00  0.00    +0.000 C 
ATOM     28  C   UNL     1     -44.329  -1.731  59.702  0.00  0.00    +0.000 C 
ATOM     29  C   UNL     1     -43.251  -3.753  60.422  0.00  0.00    +0.000 C 
ATOM     30  C   UNL     1     -42.933  -6.049  61.066  0.00  0.00    +0.000 C 
ATOM     31  O   UNL     1     -44.217  -5.817  60.442  0.00  0.00    +0.000 OA
ATOM     32  C   UNL     1     -44.393  -4.495  60.160  0.00  0.00    +0.000 C 
ATOM     33  C   UNL     1     -45.521  -3.832  59.671  0.00  0.00    +0.000 C 
BRANCH  27  34
ATOM     34  C   UNL     1     -41.120  -4.720  59.851  0.00  0.00    +0.000 C 
BRANCH  34  35
ATOM     35  C   UNL     1     -40.152  -3.573  59.913  0.00  0.00    +0.000 C 
ATOM     36  O   UNL     1     -39.643  -3.049  61.057  0.00  0.00    +0.000 OA
ATOM     37  O   UNL     1     -39.843  -3.130  58.831  0.00  0.00    +0.000 OA
ENDBRANCH  34  35
ENDBRANCH  27  34
ENDBRANCH  24  25
ENDBRANCH  23  24
ENDBRANCH   3  23
TORSDOF 11
ENDMDL
MODEL 7
REMARK VINA RESULT:    -9.486      4.971      7.112
REMARK INTER + INTRA:         -17.128
REMARK INTER:                 -15.636
REMARK INTRA:                  -1.492
REMARK UNBOUND:                -1.542
REMARK  Name = 4PHU_A_2401_2YB
REMARK  11 active torsions:
REMARK  status: ('A' for Active; 'I' for Inactive)
REMARK    1  A    between atoms: C_1  and  O_18
REMARK    2  A    between atoms: C_2  and  C_3
REMARK    3  A    between atoms: C_2  and  O_18
REMARK    4  A    between atoms: C_3  and  C_4
REMARK    5  A    between atoms: C_4  and  S_19
REMARK    6  A    between atoms: C_8  and  C_23
REMARK    7  A    between atoms: C_10  and  C_11
REMARK    8  A    between atoms: C_11  and  O_26
REMARK    9  A    between atoms: C_12  and  O_26
REMARK   10  A    between atoms: C_14  and  C_29
REMARK   11  A    between atoms: C_29  and  C_30
REMARK                            x       y       z     vdW  Elec       q    Type
REMARK                         _______ _______ _______ _____ _____    ______ ____
ROOT
ATOM      1  C   UNL     1     -51.338  -2.194  57.314  0.00  0.00    +0.000 C 
ATOM      2  C   UNL     1     -49.326  -0.728  58.554  0.00  0.00    +0.000 C 
ATOM      3  C   UNL     1     -49.004  -1.924  57.926  0.00  0.00    +0.000 C 
ATOM      4  C   UNL     1     -51.656  -0.992  57.959  0.00  0.00    +0.000 C 
ATOM      5  C   UNL     1     -50.644  -0.273  58.570  0.00  0.00    +0.000 C 
ATOM      6  C   UNL     1     -50.004  -2.657  57.293  0.00  0.00    +0.000 C 
ENDROOT
BRANCH   1  14
ATOM      7  C   UNL     1     -54.284  -4.570  55.342  0.00  0.00    +0.000 C 
ATOM      8  C   UNL     1     -53.437  -3.760  54.599  0.00  0.00    +0.000 C 
ATOM      9  C   UNL     1     -51.580  -2.135  54.359  0.00  0.00    +0.000 C 
ATOM     10  C   UNL     1     -53.183  -3.893  58.892  0.00  0.00    +0.000 C 
ATOM     11  C   UNL     1     -53.241  -3.822  57.382  0.00  0.00    +0.000 C 
ATOM     12  C   UNL     1     -54.180  -4.594  56.732  0.00  0.00    +0.000 C 
ATOM     13  C   UNL     1     -52.482  -2.989  55.227  0.00  0.00    +0.000 C 
ATOM     14  C   UNL     1     -52.376  -3.011  56.627  0.00  0.00    +0.000 C 
BRANCH   7  15
ATOM     15  O   UNL     1     -55.215  -5.323  54.693  0.00  0.00    +0.000 OA
BRANCH  15  16
ATOM     16  C   UNL     1     -55.999  -4.721  53.649  0.00  0.00    +0.000 C 
BRANCH  16  17
ATOM     17  C   UNL     1     -56.585  -5.829  52.775  0.00  0.00    +0.000 C 
BRANCH  17  18
ATOM     18  C   UNL     1     -55.873  -5.785  51.424  0.00  0.00    +0.000 C 
BRANCH  18  20
ATOM     19  C   UNL     1     -53.067  -6.086  51.000  0.00  0.00    +0.000 C 
ATOM     20  S   UNL     1     -54.579  -7.059  51.291  0.00  0.00    +0.000 S 
ATOM     21  O   UNL     1     -54.452  -7.746  52.535  0.00  0.00    +0.000 OA
ATOM     22  O   UNL     1     -54.878  -7.815  50.117  0.00  0.00    +0.000 OA
ENDBRANCH  18  20
ENDBRANCH  17  18
ENDBRANCH  16  17
ENDBRANCH  15  16
ENDBRANCH   7  15
ENDBRANCH   1  14
BRANCH   3  23
ATOM     23  C   UNL     1     -47.572  -2.413  57.921  0.00  0.00    +0.000 C 
BRANCH  23  24
ATOM     24  O   UNL     1     -46.832  -1.717  58.939  0.00  0.00    +0.000 OA
BRANCH  24  25
ATOM     25  C   UNL     1     -45.716  -2.244  59.514  0.00  0.00    +0.000 C 
ATOM     26  C   UNL     1     -43.661  -2.007  60.728  0.00  0.00    +0.000 C 
ATOM     27  C   UNL     1     -42.335  -4.221  61.174  0.00  0.00    +0.000 C 
ATOM     28  C   UNL     1     -44.791  -1.429  60.164  0.00  0.00    +0.000 C 
ATOM     29  C   UNL     1     -43.461  -3.367  60.655  0.00  0.00    +0.000 C 
ATOM     30  C   UNL     1     -42.795  -5.670  60.858  0.00  0.00    +0.000 C 
ATOM     31  O   UNL     1     -43.976  -5.501  60.040  0.00  0.00    +0.000 OA
ATOM     32  C   UNL     1     -44.367  -4.195  60.010  0.00  0.00    +0.000 C 
ATOM     33  C   UNL     1     -45.508  -3.620  59.444  0.00  0.00    +0.000 C 
BRANCH  27  34
ATOM     34  C   UNL     1     -41.113  -3.814  60.356  0.00  0.00    +0.000 C 
BRANCH  34  35
ATOM     35  C   UNL     1     -40.097  -3.019  61.127  0.00  0.00    +0.000 C 
ATOM     36  O   UNL     1     -40.342  -2.372  62.295  0.00  0.00    +0.000 OA
ATOM     37  O   UNL     1     -39.000  -2.995  60.617  0.00  0.00    +0.000 OA
ENDBRANCH  34  35
ENDBRANCH  27  34
ENDBRANCH  24  25
ENDBRANCH  23  24
ENDBRANCH   3  23
TORSDOF 11
ENDMDL
MODEL 8
REMARK VINA RESULT:    -9.422      4.903      6.928
REMARK INTER + INTRA:         -17.022
REMARK INTER:                 -15.520
REMARK INTRA:                  -1.502
REMARK UNBOUND:                -1.542
REMARK  Name = 4PHU_A_2401_2YB
REMARK  11 active torsions:
REMARK  status: ('A' for Active; 'I' for Inactive)
REMARK    1  A    between atoms: C_1  and  O_18
REMARK    2  A    between atoms: C_2  and  C_3
REMARK    3  A    between atoms: C_2  and  O_18
REMARK    4  A    between atoms: C_3  and  C_4
REMARK    5  A    between atoms: C_4  and  S_19
REMARK    6  A    between atoms: C_8  and  C_23
REMARK    7  A    between atoms: C_10  and  C_11
REMARK    8  A    between atoms: C_11  and  O_26
REMARK    9  A    between atoms: C_12  and  O_26
REMARK   10  A    between atoms: C_14  and  C_29
REMARK   11  A    between atoms: C_29  and  C_30
REMARK                            x       y       z     vdW  Elec       q    Type
REMARK                         _______ _______ _______ _____ _____    ______ ____
ROOT
ATOM      1  C   UNL     1     -51.379  -1.960  57.379  0.00  0.00    +0.000 C 
ATOM      2  C   UNL     1     -49.273  -0.670  58.658  0.00  0.00    +0.000 C 
ATOM      3  C   UNL     1     -49.019  -1.826  57.931  0.00  0.00    +0.000 C 
ATOM      4  C   UNL     1     -51.629  -0.799  58.122  0.00  0.00    +0.000 C 
ATOM      5  C   UNL     1     -50.570  -0.168  58.751  0.00  0.00    +0.000 C 
ATOM      6  C   UNL     1     -50.067  -2.471  57.278  0.00  0.00    +0.000 C 
ENDROOT
BRANCH   1  14
ATOM      7  C   UNL     1     -54.537  -3.996  55.355  0.00  0.00    +0.000 C 
ATOM      8  C   UNL     1     -54.283  -4.267  56.692  0.00  0.00    +0.000 C 
ATOM      9  C   UNL     1     -53.046  -3.947  58.816  0.00  0.00    +0.000 C 
ATOM     10  C   UNL     1     -51.903  -1.423  54.512  0.00  0.00    +0.000 C 
ATOM     11  C   UNL     1     -52.719  -2.414  55.311  0.00  0.00    +0.000 C 
ATOM     12  C   UNL     1     -53.750  -3.070  54.673  0.00  0.00    +0.000 C 
ATOM     13  C   UNL     1     -53.265  -3.615  57.354  0.00  0.00    +0.000 C 
ATOM     14  C   UNL     1     -52.471  -2.682  56.668  0.00  0.00    +0.000 C 
BRANCH   7  15
ATOM     15  O   UNL     1     -55.553  -4.653  54.729  0.00  0.00    +0.000 OA
BRANCH  15  16
ATOM     16  C   UNL     1     -55.875  -4.312  53.370  0.00  0.00    +0.000 C 
BRANCH  16  17
ATOM     17  C   UNL     1     -56.364  -5.568  52.652  0.00  0.00    +0.000 C 
BRANCH  17  18
ATOM     18  C   UNL     1     -55.646  -5.646  51.305  0.00  0.00    +0.000 C 
BRANCH  18  20
ATOM     19  C   UNL     1     -52.935  -6.004  52.119  0.00  0.00    +0.000 C 
ATOM     20  S   UNL     1     -54.310  -6.884  51.313  0.00  0.00    +0.000 S 
ATOM     21  O   UNL     1     -54.688  -7.993  52.127  0.00  0.00    +0.000 OA
ATOM     22  O   UNL     1     -53.973  -7.120  49.946  0.00  0.00    +0.000 OA
ENDBRANCH  18  20
ENDBRANCH  17  18
ENDBRANCH  16  17
ENDBRANCH  15  16
ENDBRANCH   7  15
ENDBRANCH   1  14
BRANCH   3  23
ATOM     23  C   UNL     1     -47.609  -2.368  57.842  0.00  0.00    +0.000 C 
BRANCH  23  24
ATOM     24  O   UNL     1     -46.808  -1.776  58.879  0.00  0.00    +0.000 OA
BRANCH  24  25
ATOM     25  C   UNL     1     -45.693  -2.382  59.372  0.00  0.00    +0.000 C 
ATOM     26  C   UNL     1     -43.443  -2.301  60.198  0.00  0.00    +0.000 C 
ATOM     27  C   UNL     1     -42.385  -4.602  60.861  0.00  0.00    +0.000 C 
ATOM     28  C   UNL     1     -44.562  -1.640  59.707  0.00  0.00    +0.000 C 
ATOM     29  C   UNL     1     -43.453  -3.667  60.361  0.00  0.00    +0.000 C 
ATOM     30  C   UNL     1     -43.094  -5.983  60.903  0.00  0.00    +0.000 C 
ATOM     31  O   UNL     1     -44.365  -5.753  60.253  0.00  0.00    +0.000 OA
ATOM     32  C   UNL     1     -44.568  -4.423  60.030  0.00  0.00    +0.000 C 
ATOM     33  C   UNL     1     -45.698  -3.765  59.540  0.00  0.00    +0.000 C 
BRANCH  27  34
ATOM     34  C   UNL     1     -41.282  -4.553  59.808  0.00  0.00    +0.000 C 
BRANCH  34  35
ATOM     35  C   UNL     1     -40.197  -3.557  60.103  0.00  0.00    +0.000 C 
ATOM     36  O   UNL     1     -39.985  -2.975  61.311  0.00  0.00    +0.000 OA
ATOM     37  O   UNL     1     -39.493  -3.299  59.153  0.00  0.00    +0.000 OA
ENDBRANCH  34  35
ENDBRANCH  27  34
ENDBRANCH  24  25
ENDBRANCH  23  24
ENDBRANCH   3  23
TORSDOF 11
ENDMDL
MODEL 9
REMARK VINA RESULT:    -9.083      2.149      2.423
REMARK INTER + INTRA:         -16.466
REMARK INTER:                 -14.924
REMARK INTRA:                  -1.542
REMARK UNBOUND:                -1.542
REMARK  Name = 4PHU_A_2401_2YB
REMARK  11 active torsions:
REMARK  status: ('A' for Active; 'I' for Inactive)
REMARK    1  A    between atoms: C_1  and  O_18
REMARK    2  A    between atoms: C_2  and  C_3
REMARK    3  A    between atoms: C_2  and  O_18
REMARK    4  A    between atoms: C_3  and  C_4
REMARK    5  A    between atoms: C_4  and  S_19
REMARK    6  A    between atoms: C_8  and  C_23
REMARK    7  A    between atoms: C_10  and  C_11
REMARK    8  A    between atoms: C_11  and  O_26
REMARK    9  A    between atoms: C_12  and  O_26
REMARK   10  A    between atoms: C_14  and  C_29
REMARK   11  A    between atoms: C_29  and  C_30
REMARK                            x       y       z     vdW  Elec       q    Type
REMARK                         _______ _______ _______ _____ _____    ______ ____
ROOT
ATOM      1  C   UNL     1     -51.160  -2.005  56.318  0.00  0.00    +0.000 C 
ATOM      2  C   UNL     1     -48.431  -2.541  56.312  0.00  0.00    +0.000 C 
ATOM      3  C   UNL     1     -48.994  -1.900  57.408  0.00  0.00    +0.000 C 
ATOM      4  C   UNL     1     -50.583  -2.642  55.212  0.00  0.00    +0.000 C 
ATOM      5  C   UNL     1     -49.224  -2.903  55.225  0.00  0.00    +0.000 C 
ATOM      6  C   UNL     1     -50.361  -1.639  57.423  0.00  0.00    +0.000 C 
ENDROOT
BRANCH   1  14
ATOM      7  C   UNL     1     -55.329  -1.115  56.512  0.00  0.00    +0.000 C 
ATOM      8  C   UNL     1     -54.806  -2.152  57.271  0.00  0.00    +0.000 C 
ATOM      9  C   UNL     1     -52.950  -3.584  58.077  0.00  0.00    +0.000 C 
ATOM     10  C   UNL     1     -52.297   0.178  54.667  0.00  0.00    +0.000 C 
ATOM     11  C   UNL     1     -53.147  -0.661  55.596  0.00  0.00    +0.000 C 
ATOM     12  C   UNL     1     -54.493  -0.376  55.677  0.00  0.00    +0.000 C 
ATOM     13  C   UNL     1     -53.461  -2.448  57.215  0.00  0.00    +0.000 C 
ATOM     14  C   UNL     1     -52.617  -1.704  56.373  0.00  0.00    +0.000 C 
BRANCH   7  15
ATOM     15  O   UNL     1     -56.662  -0.844  56.592  0.00  0.00    +0.000 OA
BRANCH  15  16
ATOM     16  C   UNL     1     -57.193  -0.296  57.810  0.00  0.00    +0.000 C 
BRANCH  16  17
ATOM     17  C   UNL     1     -57.089   1.227  57.749  0.00  0.00    +0.000 C 
BRANCH  17  18
ATOM     18  C   UNL     1     -57.361   1.772  59.151  0.00  0.00    +0.000 C 
BRANCH  18  20
ATOM     19  C   UNL     1     -54.643   2.421  58.576  0.00  0.00    +0.000 C 
ATOM     20  S   UNL     1     -55.961   2.746  59.790  0.00  0.00    +0.000 S 
ATOM     21  O   UNL     1     -56.287   4.134  59.755  0.00  0.00    +0.000 OA
ATOM     22  O   UNL     1     -55.599   2.157  61.038  0.00  0.00    +0.000 OA
ENDBRANCH  18  20
ENDBRANCH  17  18
ENDBRANCH  16  17
ENDBRANCH  15  16
ENDBRANCH   7  15
ENDBRANCH   1  14
BRANCH   3  23
ATOM     23  C   UNL     1     -48.123  -1.503  58.582  0.00  0.00    +0.000 C 
BRANCH  23  24
ATOM     24  O   UNL     1     -46.748  -1.472  58.160  0.00  0.00    +0.000 OA
BRANCH  24  25
ATOM     25  C   UNL     1     -45.748  -2.021  58.903  0.00  0.00    +0.000 C 
ATOM     26  C   UNL     1     -43.818  -1.819  60.312  0.00  0.00    +0.000 C 
ATOM     27  C   UNL     1     -42.741  -4.070  61.105  0.00  0.00    +0.000 C 
ATOM     28  C   UNL     1     -44.829  -1.217  59.574  0.00  0.00    +0.000 C 
ATOM     29  C   UNL     1     -43.730  -3.190  60.388  0.00  0.00    +0.000 C 
ATOM     30  C   UNL     1     -43.290  -5.505  60.875  0.00  0.00    +0.000 C 
ATOM     31  O   UNL     1     -44.360  -5.330  59.917  0.00  0.00    +0.000 OA
ATOM     32  C   UNL     1     -44.632  -4.008  59.724  0.00  0.00    +0.000 C 
ATOM     33  C   UNL     1     -45.654  -3.409  58.983  0.00  0.00    +0.000 C 
BRANCH  27  34
ATOM     34  C   UNL     1     -41.410  -3.842  60.396  0.00  0.00    +0.000 C 
BRANCH  34  35
ATOM     35  C   UNL     1     -40.353  -3.218  61.263  0.00  0.00    +0.000 C 
ATOM     36  O   UNL     1     -39.144  -2.785  60.821  0.00  0.00    +0.000 OA
ATOM     37  O   UNL     1     -40.664  -3.122  62.428  0.00  0.00    +0.000 OA
ENDBRANCH  34  35
ENDBRANCH  27  34
ENDBRANCH  24  25
ENDBRANCH  23  24
ENDBRANCH   3  23
TORSDOF 11
ENDMDL
