MODEL 1
REMARK VINA RESULT:    -9.169      0.000      0.000
REMARK INTER + INTRA:         -10.700
REMARK INTER:                 -10.482
REMARK INTRA:                  -0.218
REMARK UNBOUND:                -0.191
REMARK  Name = 9U5A_A_601_ZWY
REMARK  5 active torsions:
REMARK  status: ('A' for Active; 'I' for Inactive)
REMARK    1  A    between atoms: C_1  and  C_2
REMARK    2  A    between atoms: C_14  and  C_19
REMARK    3  A    between atoms: C_17  and  O_21
REMARK    4  A    between atoms: O_21  and  S_25
REMARK    5  A    between atoms: O_24  and  S_25
REMARK                            x       y       z     vdW  Elec       q    Type
REMARK                         _______ _______ _______ _____ _____    ______ ____
ROOT
ATOM      1  C   UNL     1      95.444 100.549 105.403  0.00  0.00    +0.000 C 
ATOM      2  C   UNL     1      94.191 101.297 104.872  0.00  0.00    +0.000 C 
ATOM      3  C   UNL     1      94.288 101.553 103.361  0.00  0.00    +0.000 C 
ATOM      4  C   UNL     1      95.445 102.536 103.068  0.00  0.00    +0.000 C 
ATOM      5  C   UNL     1      95.408 103.853 103.905  0.00  0.00    +0.000 C 
ATOM      6  C   UNL     1      95.077 103.630 105.409  0.00  0.00    +0.000 C 
ATOM      7  C   UNL     1      93.898 102.648 105.540  0.00  0.00    +0.000 C 
ATOM      8  C   UNL     1      93.317 102.311 106.922  0.00  0.00    +0.000 C 
ATOM      9  C   UNL     1      92.457 101.056 106.671  0.00  0.00    +0.000 C 
ATOM     10  C   UNL     1      92.976 100.515 105.344  0.00  0.00    +0.000 C 
ATOM     11  C   UNL     1      94.757 104.973 106.086  0.00  0.00    +0.000 C 
ATOM     12  C   UNL     1      95.730 106.062 105.701  0.00  0.00    +0.000 C 
ATOM     13  C   UNL     1      96.560 106.006 104.642  0.00  0.00    +0.000 C 
ATOM     14  C   UNL     1      96.671 104.769 103.734  0.00  0.00    +0.000 C 
ATOM     15  C   UNL     1      96.750 105.272 102.269  0.00  0.00    +0.000 C 
ATOM     16  C   UNL     1      97.864 106.308 102.030  0.00  0.00    +0.000 C 
ATOM     17  C   UNL     1      97.751 107.511 102.975  0.00  0.00    +0.000 C 
ATOM     18  C   UNL     1      97.631 107.066 104.441  0.00  0.00    +0.000 C 
ATOM     19  C   UNL     1      97.969 104.007 104.102  0.00  0.00    +0.000 C 
ATOM     20  O   UNL     1      92.484  99.571 104.737  0.00  0.00    +0.000 OA
ENDROOT
BRANCH  17  21
ATOM     21  O   UNL     1      98.935 108.277 102.835  0.00  0.00    +0.000 OA
BRANCH  21  24
ATOM     22  O   UNL     1      97.101 109.997 101.954  0.00  0.00    +0.000 OA
ATOM     23  O   UNL     1      99.078 110.750 103.363  0.00  0.00    +0.000 OA
ATOM     24  S   UNL     1      98.741 109.850 102.256  0.00  0.00    +0.000 S 
BRANCH  24  25
ATOM     25  O   UNL     1      99.427 109.932 100.966  0.00  0.00    +0.000 OA
ATOM     26  H   UNL     1     100.357 109.821 101.096  0.00  0.00    +0.000 HD
ENDBRANCH  24  25
ENDBRANCH  21  24
ENDBRANCH  17  21
TORSDOF 3
ENDMDL
MODEL 2
REMARK VINA RESULT:    -8.964      1.268      2.567
REMARK INTER + INTRA:         -10.466
REMARK INTER:                 -10.296
REMARK INTRA:                  -0.170
REMARK UNBOUND:                -0.191
REMARK  Name = 9U5A_A_601_ZWY
REMARK  5 active torsions:
REMARK  status: ('A' for Active; 'I' for Inactive)
REMARK    1  A    between atoms: C_1  and  C_2
REMARK    2  A    between atoms: C_14  and  C_19
REMARK    3  A    between atoms: C_17  and  O_21
REMARK    4  A    between atoms: O_21  and  S_25
REMARK    5  A    between atoms: O_24  and  S_25
REMARK                            x       y       z     vdW  Elec       q    Type
REMARK                         _______ _______ _______ _____ _____    ______ ____
ROOT
ATOM      1  C   UNL     1      92.887 101.375 104.626  0.00  0.00    +0.000 C 
ATOM      2  C   UNL     1      93.858 101.431 105.837  0.00  0.00    +0.000 C 
ATOM      3  C   UNL     1      93.549 102.626 106.751  0.00  0.00    +0.000 C 
ATOM      4  C   UNL     1      93.834 103.948 106.001  0.00  0.00    +0.000 C 
ATOM      5  C   UNL     1      95.248 104.034 105.346  0.00  0.00    +0.000 C 
ATOM      6  C   UNL     1      95.677 102.734 104.608  0.00  0.00    +0.000 C 
ATOM      7  C   UNL     1      95.350 101.509 105.482  0.00  0.00    +0.000 C 
ATOM      8  C   UNL     1      95.742 100.097 105.020  0.00  0.00    +0.000 C 
ATOM      9  C   UNL     1      94.930  99.163 105.939  0.00  0.00    +0.000 C 
ATOM     10  C   UNL     1      93.828 100.060 106.492  0.00  0.00    +0.000 C 
ATOM     11  C   UNL     1      97.176 102.787 104.267  0.00  0.00    +0.000 C 
ATOM     12  C   UNL     1      97.594 104.124 103.705  0.00  0.00    +0.000 C 
ATOM     13  C   UNL     1      96.870 105.256 103.804  0.00  0.00    +0.000 C 
ATOM     14  C   UNL     1      95.472 105.298 104.443  0.00  0.00    +0.000 C 
ATOM     15  C   UNL     1      95.397 106.577 105.316  0.00  0.00    +0.000 C 
ATOM     16  C   UNL     1      95.761 107.866 104.558  0.00  0.00    +0.000 C 
ATOM     17  C   UNL     1      97.143 107.782 103.898  0.00  0.00    +0.000 C 
ATOM     18  C   UNL     1      97.285 106.509 103.049  0.00  0.00    +0.000 C 
ATOM     19  C   UNL     1      94.418 105.369 103.310  0.00  0.00    +0.000 C 
ATOM     20  O   UNL     1      93.019  99.721 107.347  0.00  0.00    +0.000 OA
ENDROOT
BRANCH  17  21
ATOM     21  O   UNL     1      97.280 108.906 103.047  0.00  0.00    +0.000 OA
BRANCH  21  24
ATOM     22  O   UNL     1      98.692 111.123 103.482  0.00  0.00    +0.000 OA
ATOM     23  O   UNL     1      99.681 108.810 103.847  0.00  0.00    +0.000 OA
ATOM     24  S   UNL     1      98.832 109.555 102.913  0.00  0.00    +0.000 S 
BRANCH  24  25
ATOM     25  O   UNL     1      99.152 109.640 101.488  0.00  0.00    +0.000 OA
ATOM     26  H   UNL     1      98.352 109.614 100.983  0.00  0.00    +0.000 HD
ENDBRANCH  24  25
ENDBRANCH  21  24
ENDBRANCH  17  21
TORSDOF 3
ENDMDL
MODEL 3
REMARK VINA RESULT:    -8.852      3.455      8.355
REMARK INTER + INTRA:         -10.337
REMARK INTER:                 -10.196
REMARK INTRA:                  -0.141
REMARK UNBOUND:                -0.191
REMARK  Name = 9U5A_A_601_ZWY
REMARK  5 active torsions:
REMARK  status: ('A' for Active; 'I' for Inactive)
REMARK    1  A    between atoms: C_1  and  C_2
REMARK    2  A    between atoms: C_14  and  C_19
REMARK    3  A    between atoms: C_17  and  O_21
REMARK    4  A    between atoms: O_21  and  S_25
REMARK    5  A    between atoms: O_24  and  S_25
REMARK                            x       y       z     vdW  Elec       q    Type
REMARK                         _______ _______ _______ _____ _____    ______ ____
ROOT
ATOM      1  C   UNL     1      96.292 105.619 102.187  0.00  0.00    +0.000 C 
ATOM      2  C   UNL     1      97.101 105.686 103.511  0.00  0.00    +0.000 C 
ATOM      3  C   UNL     1      97.899 104.395 103.748  0.00  0.00    +0.000 C 
ATOM      4  C   UNL     1      96.929 103.214 103.980  0.00  0.00    +0.000 C 
ATOM      5  C   UNL     1      95.844 103.466 105.073  0.00  0.00    +0.000 C 
ATOM      6  C   UNL     1      95.185 104.873 104.989  0.00  0.00    +0.000 C 
ATOM      7  C   UNL     1      96.272 105.943 104.777  0.00  0.00    +0.000 C 
ATOM      8  C   UNL     1      95.899 107.433 104.735  0.00  0.00    +0.000 C 
ATOM      9  C   UNL     1      97.148 108.115 104.142  0.00  0.00    +0.000 C 
ATOM     10  C   UNL     1      97.906 106.975 103.472  0.00  0.00    +0.000 C 
ATOM     11  C   UNL     1      94.371 105.154 106.262  0.00  0.00    +0.000 C 
ATOM     12  C   UNL     1      93.531 103.973 106.685  0.00  0.00    +0.000 C 
ATOM     13  C   UNL     1      93.710 102.712 106.247  0.00  0.00    +0.000 C 
ATOM     14  C   UNL     1      94.758 102.338 105.186  0.00  0.00    +0.000 C 
ATOM     15  C   UNL     1      95.431 101.017 105.639  0.00  0.00    +0.000 C 
ATOM     16  C   UNL     1      94.431  99.884 105.936  0.00  0.00    +0.000 C 
ATOM     17  C   UNL     1      93.375 100.297 106.968  0.00  0.00    +0.000 C 
ATOM     18  C   UNL     1      92.702 101.625 106.585  0.00  0.00    +0.000 C 
ATOM     19  C   UNL     1      94.032 102.125 103.834  0.00  0.00    +0.000 C 
ATOM     20  O   UNL     1      99.015 107.082 102.963  0.00  0.00    +0.000 OA
ENDROOT
BRANCH  17  21
ATOM     21  O   UNL     1      92.383  99.284 106.994  0.00  0.00    +0.000 OA
BRANCH  21  24
ATOM     22  O   UNL     1      91.569 100.137 109.383  0.00  0.00    +0.000 OA
ATOM     23  O   UNL     1      90.656  98.009 108.337  0.00  0.00    +0.000 OA
ATOM     24  S   UNL     1      91.911  98.744 108.521  0.00  0.00    +0.000 S 
BRANCH  24  25
ATOM     25  O   UNL     1      93.078  98.123 109.149  0.00  0.00    +0.000 OA
ATOM     26  H   UNL     1      92.793  97.440 109.739  0.00  0.00    +0.000 HD
ENDBRANCH  24  25
ENDBRANCH  21  24
ENDBRANCH  17  21
TORSDOF 3
ENDMDL
MODEL 4
REMARK VINA RESULT:    -8.489      6.120      9.084
REMARK INTER + INTRA:          -9.922
REMARK INTER:                  -9.718
REMARK INTRA:                  -0.204
REMARK UNBOUND:                -0.191
REMARK  Name = 9U5A_A_601_ZWY
REMARK  5 active torsions:
REMARK  status: ('A' for Active; 'I' for Inactive)
REMARK    1  A    between atoms: C_1  and  C_2
REMARK    2  A    between atoms: C_14  and  C_19
REMARK    3  A    between atoms: C_17  and  O_21
REMARK    4  A    between atoms: O_21  and  S_25
REMARK    5  A    between atoms: O_24  and  S_25
REMARK                            x       y       z     vdW  Elec       q    Type
REMARK                         _______ _______ _______ _____ _____    ______ ____
ROOT
ATOM      1  C   UNL     1      95.585 101.944 102.499  0.00  0.00    +0.000 C 
ATOM      2  C   UNL     1      95.067 100.493 102.309  0.00  0.00    +0.000 C 
ATOM      3  C   UNL     1      93.555 100.465 102.040  0.00  0.00    +0.000 C 
ATOM      4  C   UNL     1      92.791 100.958 103.290  0.00  0.00    +0.000 C 
ATOM      5  C   UNL     1      93.184 100.241 104.619  0.00  0.00    +0.000 C 
ATOM      6  C   UNL     1      94.718 100.049 104.798  0.00  0.00    +0.000 C 
ATOM      7  C   UNL     1      95.333  99.539 103.482  0.00  0.00    +0.000 C 
ATOM      8  C   UNL     1      96.829  99.194 103.406  0.00  0.00    +0.000 C 
ATOM      9  C   UNL     1      97.116  99.102 101.894  0.00  0.00    +0.000 C 
ATOM     10  C   UNL     1      95.948  99.844 101.254  0.00  0.00    +0.000 C 
ATOM     11  C   UNL     1      94.999  99.077 105.956  0.00  0.00    +0.000 C 
ATOM     12  C   UNL     1      94.147  99.360 107.170  0.00  0.00    +0.000 C 
ATOM     13  C   UNL     1      93.032 100.116 107.162  0.00  0.00    +0.000 C 
ATOM     14  C   UNL     1      92.536 100.857 105.909  0.00  0.00    +0.000 C 
ATOM     15  C   UNL     1      90.997 100.688 105.846  0.00  0.00    +0.000 C 
ATOM     16  C   UNL     1      90.273 101.116 107.136  0.00  0.00    +0.000 C 
ATOM     17  C   UNL     1      90.815 100.389 108.374  0.00  0.00    +0.000 C 
ATOM     18  C   UNL     1      92.345 100.494 108.464  0.00  0.00    +0.000 C 
ATOM     19  C   UNL     1      92.897 102.357 106.053  0.00  0.00    +0.000 C 
ATOM     20  O   UNL     1      95.747  99.914 100.047  0.00  0.00    +0.000 OA
ENDROOT
BRANCH  17  21
ATOM     21  O   UNL     1      90.255 101.015 109.516  0.00  0.00    +0.000 OA
BRANCH  21  24
ATOM     22  O   UNL     1      87.601 101.168 109.339  0.00  0.00    +0.000 OA
ATOM     23  O   UNL     1      88.799  98.947 109.648  0.00  0.00    +0.000 OA
ATOM     24  S   UNL     1      88.830 100.337 110.114  0.00  0.00    +0.000 S 
BRANCH  24  25
ATOM     25  O   UNL     1      88.747 100.670 111.536  0.00  0.00    +0.000 OA
ATOM     26  H   UNL     1      89.288 101.425 111.715  0.00  0.00    +0.000 HD
ENDBRANCH  24  25
ENDBRANCH  21  24
ENDBRANCH  17  21
TORSDOF 3
ENDMDL
MODEL 5
REMARK VINA RESULT:    -8.325      4.831      6.697
REMARK INTER + INTRA:          -9.733
REMARK INTER:                  -9.677
REMARK INTRA:                  -0.056
REMARK UNBOUND:                -0.191
REMARK  Name = 9U5A_A_601_ZWY
REMARK  5 active torsions:
REMARK  status: ('A' for Active; 'I' for Inactive)
REMARK    1  A    between atoms: C_1  and  C_2
REMARK    2  A    between atoms: C_14  and  C_19
REMARK    3  A    between atoms: C_17  and  O_21
REMARK    4  A    between atoms: O_21  and  S_25
REMARK    5  A    between atoms: O_24  and  S_25
REMARK                            x       y       z     vdW  Elec       q    Type
REMARK                         _______ _______ _______ _____ _____    ______ ____
ROOT
ATOM      1  C   UNL     1      99.558 107.524 103.378  0.00  0.00    +0.000 C 
ATOM      2  C   UNL     1      98.445 106.497 103.034  0.00  0.00    +0.000 C 
ATOM      3  C   UNL     1      97.962 106.654 101.585  0.00  0.00    +0.000 C 
ATOM      4  C   UNL     1      97.256 108.019 101.411  0.00  0.00    +0.000 C 
ATOM      5  C   UNL     1      96.137 108.311 102.459  0.00  0.00    +0.000 C 
ATOM      6  C   UNL     1      96.529 107.934 103.917  0.00  0.00    +0.000 C 
ATOM      7  C   UNL     1      97.200 106.549 103.932  0.00  0.00    +0.000 C 
ATOM      8  C   UNL     1      97.619 105.902 105.261  0.00  0.00    +0.000 C 
ATOM      9  C   UNL     1      98.562 104.757 104.840  0.00  0.00    +0.000 C 
ATOM     10  C   UNL     1      98.975 105.126 103.420  0.00  0.00    +0.000 C 
ATOM     11  C   UNL     1      95.288 107.959 104.824  0.00  0.00    +0.000 C 
ATOM     12  C   UNL     1      94.420 109.172 104.585  0.00  0.00    +0.000 C 
ATOM     13  C   UNL     1      94.493 109.962 103.497  0.00  0.00    +0.000 C 
ATOM     14  C   UNL     1      95.542 109.762 102.390  0.00  0.00    +0.000 C 
ATOM     15  C   UNL     1      94.828 109.964 101.029  0.00  0.00    +0.000 C 
ATOM     16  C   UNL     1      94.071 111.300 100.919  0.00  0.00    +0.000 C 
ATOM     17  C   UNL     1      93.060 111.490 102.057  0.00  0.00    +0.000 C 
ATOM     18  C   UNL     1      93.709 111.263 103.431  0.00  0.00    +0.000 C 
ATOM     19  C   UNL     1      96.651 110.830 102.568  0.00  0.00    +0.000 C 
ATOM     20  O   UNL     1      99.650 104.414 102.685  0.00  0.00    +0.000 OA
ENDROOT
BRANCH  17  21
ATOM     21  O   UNL     1      92.595 112.827 101.997  0.00  0.00    +0.000 OA
BRANCH  21  24
ATOM     22  O   UNL     1      90.967 112.774 104.105  0.00  0.00    +0.000 OA
ATOM     23  O   UNL     1      90.718 114.506 102.261  0.00  0.00    +0.000 OA
ATOM     24  S   UNL     1      90.992 113.080 102.459  0.00  0.00    +0.000 S 
BRANCH  24  25
ATOM     25  O   UNL     1      90.180 112.047 101.816  0.00  0.00    +0.000 OA
ATOM     26  H   UNL     1      90.638 111.220 101.848  0.00  0.00    +0.000 HD
ENDBRANCH  24  25
ENDBRANCH  21  24
ENDBRANCH  17  21
TORSDOF 3
ENDMDL
MODEL 6
REMARK VINA RESULT:    -8.084      3.026      4.385
REMARK INTER + INTRA:          -9.456
REMARK INTER:                  -9.274
REMARK INTRA:                  -0.183
REMARK UNBOUND:                -0.191
REMARK  Name = 9U5A_A_601_ZWY
REMARK  5 active torsions:
REMARK  status: ('A' for Active; 'I' for Inactive)
REMARK    1  A    between atoms: C_1  and  C_2
REMARK    2  A    between atoms: C_14  and  C_19
REMARK    3  A    between atoms: C_17  and  O_21
REMARK    4  A    between atoms: O_21  and  S_25
REMARK    5  A    between atoms: O_24  and  S_25
REMARK                            x       y       z     vdW  Elec       q    Type
REMARK                         _______ _______ _______ _____ _____    ______ ____
ROOT
ATOM      1  C   UNL     1      94.328 101.562 104.246  0.00  0.00    +0.000 C 
ATOM      2  C   UNL     1      95.652 101.766 103.460  0.00  0.00    +0.000 C 
ATOM      3  C   UNL     1      96.549 102.816 104.132  0.00  0.00    +0.000 C 
ATOM      4  C   UNL     1      95.874 104.205 104.065  0.00  0.00    +0.000 C 
ATOM      5  C   UNL     1      95.403 104.633 102.640  0.00  0.00    +0.000 C 
ATOM      6  C   UNL     1      94.693 103.498 101.848  0.00  0.00    +0.000 C 
ATOM      7  C   UNL     1      95.488 102.188 101.992  0.00  0.00    +0.000 C 
ATOM      8  C   UNL     1      95.044 100.921 101.244  0.00  0.00    +0.000 C 
ATOM      9  C   UNL     1      95.832  99.786 101.928  0.00  0.00    +0.000 C 
ATOM     10  C   UNL     1      96.264 100.390 103.259  0.00  0.00    +0.000 C 
ATOM     11  C   UNL     1      94.543 103.895 100.370  0.00  0.00    +0.000 C 
ATOM     12  C   UNL     1      94.071 105.319 100.198  0.00  0.00    +0.000 C 
ATOM     13  C   UNL     1      94.107 106.258 101.163  0.00  0.00    +0.000 C 
ATOM     14  C   UNL     1      94.567 105.960 102.600  0.00  0.00    +0.000 C 
ATOM     15  C   UNL     1      95.455 107.144 103.061  0.00  0.00    +0.000 C 
ATOM     16  C   UNL     1      94.780 108.520 102.908  0.00  0.00    +0.000 C 
ATOM     17  C   UNL     1      94.297 108.774 101.475  0.00  0.00    +0.000 C 
ATOM     18  C   UNL     1      93.441 107.609 100.955  0.00  0.00    +0.000 C 
ATOM     19  C   UNL     1      93.313 105.857 103.504  0.00  0.00    +0.000 C 
ATOM     20  O   UNL     1      97.003  99.838 104.065  0.00  0.00    +0.000 OA
ENDROOT
BRANCH  17  21
ATOM     21  O   UNL     1      93.496 109.944 101.495  0.00  0.00    +0.000 OA
BRANCH  21  24
ATOM     22  O   UNL     1      93.356 112.602 101.381  0.00  0.00    +0.000 OA
ATOM     23  O   UNL     1      95.543 111.358 101.020  0.00  0.00    +0.000 OA
ATOM     24  S   UNL     1      94.118 111.285 100.682  0.00  0.00    +0.000 S 
BRANCH  24  25
ATOM     25  O   UNL     1      93.663 111.209  99.294  0.00  0.00    +0.000 OA
ATOM     26  H   UNL     1      92.762 110.921  99.273  0.00  0.00    +0.000 HD
ENDBRANCH  24  25
ENDBRANCH  21  24
ENDBRANCH  17  21
TORSDOF 3
ENDMDL
MODEL 7
REMARK VINA RESULT:    -8.020      3.928      8.580
REMARK INTER + INTRA:          -9.383
REMARK INTER:                  -9.166
REMARK INTRA:                  -0.217
REMARK UNBOUND:                -0.191
REMARK  Name = 9U5A_A_601_ZWY
REMARK  5 active torsions:
REMARK  status: ('A' for Active; 'I' for Inactive)
REMARK    1  A    between atoms: C_1  and  C_2
REMARK    2  A    between atoms: C_14  and  C_19
REMARK    3  A    between atoms: C_17  and  O_21
REMARK    4  A    between atoms: O_21  and  S_25
REMARK    5  A    between atoms: O_24  and  S_25
REMARK                            x       y       z     vdW  Elec       q    Type
REMARK                         _______ _______ _______ _____ _____    ______ ____
ROOT
ATOM      1  C   UNL     1      95.555 103.752 100.479  0.00  0.00    +0.000 C 
ATOM      2  C   UNL     1      95.257 104.804 101.581  0.00  0.00    +0.000 C 
ATOM      3  C   UNL     1      96.158 104.603 102.809  0.00  0.00    +0.000 C 
ATOM      4  C   UNL     1      95.818 103.259 103.495  0.00  0.00    +0.000 C 
ATOM      5  C   UNL     1      94.303 103.054 103.812  0.00  0.00    +0.000 C 
ATOM      6  C   UNL     1      93.357 103.478 102.652  0.00  0.00    +0.000 C 
ATOM      7  C   UNL     1      93.808 104.837 102.086  0.00  0.00    +0.000 C 
ATOM      8  C   UNL     1      92.997 105.525 100.976  0.00  0.00    +0.000 C 
ATOM      9  C   UNL     1      93.946 106.615 100.439  0.00  0.00    +0.000 C 
ATOM     10  C   UNL     1      95.323 106.170 100.918  0.00  0.00    +0.000 C 
ATOM     11  C   UNL     1      91.903 103.540 103.149  0.00  0.00    +0.000 C 
ATOM     12  C   UNL     1      91.533 102.351 104.003  0.00  0.00    +0.000 C 
ATOM     13  C   UNL     1      92.420 101.512 104.573  0.00  0.00    +0.000 C 
ATOM     14  C   UNL     1      93.937 101.625 104.347  0.00  0.00    +0.000 C 
ATOM     15  C   UNL     1      94.630 101.392 105.714  0.00  0.00    +0.000 C 
ATOM     16  C   UNL     1      94.210 100.081 106.406  0.00  0.00    +0.000 C 
ATOM     17  C   UNL     1      92.691  99.979 106.582  0.00  0.00    +0.000 C 
ATOM     18  C   UNL     1      91.952 100.240 105.261  0.00  0.00    +0.000 C 
ATOM     19  C   UNL     1      94.366 100.525 103.344  0.00  0.00    +0.000 C 
ATOM     20  O   UNL     1      96.351 106.823 100.782  0.00  0.00    +0.000 OA
ENDROOT
BRANCH  17  21
ATOM     21  O   UNL     1      92.398  98.659 107.006  0.00  0.00    +0.000 OA
BRANCH  21  24
ATOM     22  O   UNL     1      91.699 100.032 109.179  0.00  0.00    +0.000 OA
ATOM     23  O   UNL     1      90.681  97.767 108.640  0.00  0.00    +0.000 OA
ATOM     24  S   UNL     1      91.964  98.475 108.626  0.00  0.00    +0.000 S 
BRANCH  24  25
ATOM     25  O   UNL     1      93.133  97.957 109.338  0.00  0.00    +0.000 OA
ATOM     26  H   UNL     1      93.239  97.037 109.143  0.00  0.00    +0.000 HD
ENDBRANCH  24  25
ENDBRANCH  21  24
ENDBRANCH  17  21
TORSDOF 3
ENDMDL
MODEL 8
REMARK VINA RESULT:    -8.018      4.849      7.292
REMARK INTER + INTRA:          -9.382
REMARK INTER:                  -9.198
REMARK INTRA:                  -0.183
REMARK UNBOUND:                -0.191
REMARK  Name = 9U5A_A_601_ZWY
REMARK  5 active torsions:
REMARK  status: ('A' for Active; 'I' for Inactive)
REMARK    1  A    between atoms: C_1  and  C_2
REMARK    2  A    between atoms: C_14  and  C_19
REMARK    3  A    between atoms: C_17  and  O_21
REMARK    4  A    between atoms: O_21  and  S_25
REMARK    5  A    between atoms: O_24  and  S_25
REMARK                            x       y       z     vdW  Elec       q    Type
REMARK                         _______ _______ _______ _____ _____    ______ ____
ROOT
ATOM      1  C   UNL     1      97.176 105.659 102.972  0.00  0.00    +0.000 C 
ATOM      2  C   UNL     1      97.542 106.412 104.279  0.00  0.00    +0.000 C 
ATOM      3  C   UNL     1      96.466 106.222 105.359  0.00  0.00    +0.000 C 
ATOM      4  C   UNL     1      95.150 106.899 104.912  0.00  0.00    +0.000 C 
ATOM      5  C   UNL     1      95.302 108.385 104.462  0.00  0.00    +0.000 C 
ATOM      6  C   UNL     1      96.535 108.640 103.549  0.00  0.00    +0.000 C 
ATOM      7  C   UNL     1      97.768 107.923 104.129  0.00  0.00    +0.000 C 
ATOM      8  C   UNL     1      99.142 108.074 103.460  0.00  0.00    +0.000 C 
ATOM      9  C   UNL     1      99.988 106.944 104.081  0.00  0.00    +0.000 C 
ATOM     10  C   UNL     1      98.952 105.984 104.655  0.00  0.00    +0.000 C 
ATOM     11  C   UNL     1      96.788 110.151 103.408  0.00  0.00    +0.000 C 
ATOM     12  C   UNL     1      95.518 110.930 103.164  0.00  0.00    +0.000 C 
ATOM     13  C   UNL     1      94.276 110.458 103.387  0.00  0.00    +0.000 C 
ATOM     14  C   UNL     1      94.002 109.016 103.848  0.00  0.00    +0.000 C 
ATOM     15  C   UNL     1      92.895 109.076 104.931  0.00  0.00    +0.000 C 
ATOM     16  C   UNL     1      91.627 109.824 104.480  0.00  0.00    +0.000 C 
ATOM     17  C   UNL     1      91.935 111.244 103.989  0.00  0.00    +0.000 C 
ATOM     18  C   UNL     1      93.056 111.246 102.938  0.00  0.00    +0.000 C 
ATOM     19  C   UNL     1      93.506 108.199 102.629  0.00  0.00    +0.000 C 
ATOM     20  O   UNL     1      99.218 104.995 105.327  0.00  0.00    +0.000 OA
ENDROOT
BRANCH  17  21
ATOM     21  O   UNL     1      90.757 111.753 103.388  0.00  0.00    +0.000 OA
BRANCH  21  24
ATOM     22  O   UNL     1      91.598 114.156 104.173  0.00  0.00    +0.000 OA
ATOM     23  O   UNL     1      89.432 113.851 102.880  0.00  0.00    +0.000 OA
ATOM     24  S   UNL     1      90.211 113.243 103.962  0.00  0.00    +0.000 S 
BRANCH  24  25
ATOM     25  O   UNL     1      89.636 113.019 105.289  0.00  0.00    +0.000 OA
ATOM     26  H   UNL     1      88.866 113.559 105.394  0.00  0.00    +0.000 HD
ENDBRANCH  24  25
ENDBRANCH  21  24
ENDBRANCH  17  21
TORSDOF 3
ENDMDL
MODEL 9
REMARK VINA RESULT:    -7.977      2.129      3.460
REMARK INTER + INTRA:          -9.334
REMARK INTER:                  -9.143
REMARK INTRA:                  -0.191
REMARK UNBOUND:                -0.191
REMARK  Name = 9U5A_A_601_ZWY
REMARK  5 active torsions:
REMARK  status: ('A' for Active; 'I' for Inactive)
REMARK    1  A    between atoms: C_1  and  C_2
REMARK    2  A    between atoms: C_14  and  C_19
REMARK    3  A    between atoms: C_17  and  O_21
REMARK    4  A    between atoms: O_21  and  S_25
REMARK    5  A    between atoms: O_24  and  S_25
REMARK                            x       y       z     vdW  Elec       q    Type
REMARK                         _______ _______ _______ _____ _____    ______ ____
ROOT
ATOM      1  C   UNL     1      92.389 100.274 105.392  0.00  0.00    +0.000 C 
ATOM      2  C   UNL     1      93.455 100.613 106.468  0.00  0.00    +0.000 C 
ATOM      3  C   UNL     1      93.014 101.796 107.344  0.00  0.00    +0.000 C 
ATOM      4  C   UNL     1      92.944 103.083 106.490  0.00  0.00    +0.000 C 
ATOM      5  C   UNL     1      94.233 103.387 105.663  0.00  0.00    +0.000 C 
ATOM      6  C   UNL     1      94.830 102.139 104.953  0.00  0.00    +0.000 C 
ATOM      7  C   UNL     1      94.853 100.948 105.929  0.00  0.00    +0.000 C 
ATOM      8  C   UNL     1      95.467  99.606 105.504  0.00  0.00    +0.000 C 
ATOM      9  C   UNL     1      94.964  98.609 106.568  0.00  0.00    +0.000 C 
ATOM     10  C   UNL     1      93.772  99.319 107.200  0.00  0.00    +0.000 C 
ATOM     11  C   UNL     1      96.241 102.452 104.428  0.00  0.00    +0.000 C 
ATOM     12  C   UNL     1      96.319 103.795 103.743  0.00  0.00    +0.000 C 
ATOM     13  C   UNL     1      95.398 104.771 103.866  0.00  0.00    +0.000 C 
ATOM     14  C   UNL     1      94.098 104.594 104.668  0.00  0.00    +0.000 C 
ATOM     15  C   UNL     1      93.864 105.900 105.469  0.00  0.00    +0.000 C 
ATOM     16  C   UNL     1      93.877 107.171 104.599  0.00  0.00    +0.000 C 
ATOM     17  C   UNL     1      95.168 107.301 103.781  0.00  0.00    +0.000 C 
ATOM     18  C   UNL     1      95.468 106.015 102.995  0.00  0.00    +0.000 C 
ATOM     19  C   UNL     1      92.934 104.370 103.671  0.00  0.00    +0.000 C 
ATOM     20  O   UNL     1      93.146  98.900 108.166  0.00  0.00    +0.000 OA
ENDROOT
BRANCH  17  21
ATOM     21  O   UNL     1      94.983 108.358 102.856  0.00  0.00    +0.000 OA
BRANCH  21  24
ATOM     22  O   UNL     1      95.916 110.753 102.154  0.00  0.00    +0.000 OA
ATOM     23  O   UNL     1      93.931 110.494 103.720  0.00  0.00    +0.000 OA
ATOM     24  S   UNL     1      95.250 109.917 103.443  0.00  0.00    +0.000 S 
BRANCH  24  25
ATOM     25  O   UNL     1      96.280 109.827 104.478  0.00  0.00    +0.000 OA
ATOM     26  H   UNL     1      95.889 109.977 105.326  0.00  0.00    +0.000 HD
ENDBRANCH  24  25
ENDBRANCH  21  24
ENDBRANCH  17  21
TORSDOF 3
ENDMDL
