MODEL 1
REMARK VINA RESULT:    -5.790      0.000      0.000
REMARK INTER + INTRA:          -8.856
REMARK INTER:                  -8.545
REMARK INTRA:                  -0.311
REMARK UNBOUND:                -0.358
REMARK  Name = 3U9Q_A_1_DKA
REMARK  8 active torsions:
REMARK  status: ('A' for Active; 'I' for Inactive)
REMARK    1  A    between atoms: C_1  and  C_3
REMARK    2  A    between atoms: C_3  and  C_4
REMARK    3  A    between atoms: C_4  and  C_5
REMARK    4  A    between atoms: C_5  and  C_6
REMARK    5  A    between atoms: C_6  and  C_7
REMARK    6  A    between atoms: C_7  and  C_8
REMARK    7  A    between atoms: C_8  and  C_9
REMARK    8  A    between atoms: C_9  and  C_10
REMARK                            x       y       z     vdW  Elec       q    Type
REMARK                         _______ _______ _______ _____ _____    ______ ____
ROOT
ATOM      1  C   UNL     1       2.877   1.245  22.847  0.00  0.00    +0.000 C 
ENDROOT
BRANCH   1   2
ATOM      2  C   UNL     1       2.950   2.770  22.853  0.00  0.00    +0.000 C 
BRANCH   2   3
ATOM      3  C   UNL     1       4.073   3.359  21.982  0.00  0.00    +0.000 C 
BRANCH   3   4
ATOM      4  C   UNL     1       3.637   3.461  20.527  0.00  0.00    +0.000 C 
ATOM      5  O   UNL     1       2.806   4.283  20.144  0.00  0.00    +0.000 OA
ATOM      6  O   UNL     1       4.125   2.651  19.583  0.00  0.00    +0.000 OA
ENDBRANCH   3   4
ENDBRANCH   2   3
ENDBRANCH   1   2
BRANCH   1   7
ATOM      7  C   UNL     1       1.495   0.754  22.450  0.00  0.00    +0.000 C 
BRANCH   7   8
ATOM      8  C   UNL     1       1.322  -0.746  22.692  0.00  0.00    +0.000 C 
BRANCH   8   9
ATOM      9  C   UNL     1       1.581  -1.102  24.142  0.00  0.00    +0.000 C 
BRANCH   9  10
ATOM     10  C   UNL     1       0.807  -2.340  24.589  0.00  0.00    +0.000 C 
BRANCH  10  11
ATOM     11  C   UNL     1      -0.231  -1.975  25.641  0.00  0.00    +0.000 C 
ATOM     12  C   UNL     1      -0.022  -2.739  26.927  0.00  0.00    +0.000 C 
ENDBRANCH  10  11
ENDBRANCH   9  10
ENDBRANCH   8   9
ENDBRANCH   7   8
ENDBRANCH   1   7
TORSDOF 8
ENDMDL
MODEL 2
REMARK VINA RESULT:    -5.642      4.203      6.950
REMARK INTER + INTRA:          -8.639
REMARK INTER:                  -8.308
REMARK INTRA:                  -0.331
REMARK UNBOUND:                -0.358
REMARK  Name = 3U9Q_A_1_DKA
REMARK  8 active torsions:
REMARK  status: ('A' for Active; 'I' for Inactive)
REMARK    1  A    between atoms: C_1  and  C_3
REMARK    2  A    between atoms: C_3  and  C_4
REMARK    3  A    between atoms: C_4  and  C_5
REMARK    4  A    between atoms: C_5  and  C_6
REMARK    5  A    between atoms: C_6  and  C_7
REMARK    6  A    between atoms: C_7  and  C_8
REMARK    7  A    between atoms: C_8  and  C_9
REMARK    8  A    between atoms: C_9  and  C_10
REMARK                            x       y       z     vdW  Elec       q    Type
REMARK                         _______ _______ _______ _____ _____    ______ ____
ROOT
ATOM      1  C   UNL     1       1.400  -1.196  22.871  0.00  0.00    +0.000 C 
ENDROOT
BRANCH   1   2
ATOM      2  C   UNL     1       1.518  -1.405  24.378  0.00  0.00    +0.000 C 
BRANCH   2   3
ATOM      3  C   UNL     1       0.247  -1.957  25.047  0.00  0.00    +0.000 C 
BRANCH   3   4
ATOM      4  C   UNL     1       0.596  -2.977  26.121  0.00  0.00    +0.000 C 
ATOM      5  O   UNL     1       0.955  -4.122  25.852  0.00  0.00    +0.000 OA
ATOM      6  O   UNL     1       0.518  -2.688  27.424  0.00  0.00    +0.000 OA
ENDBRANCH   3   4
ENDBRANCH   2   3
ENDBRANCH   1   2
BRANCH   1   7
ATOM      7  C   UNL     1       1.309   0.280  22.518  0.00  0.00    +0.000 C 
BRANCH   7   8
ATOM      8  C   UNL     1       2.671   0.876  22.164  0.00  0.00    +0.000 C 
BRANCH   8   9
ATOM      9  C   UNL     1       3.068   1.961  23.145  0.00  0.00    +0.000 C 
BRANCH   9  10
ATOM     10  C   UNL     1       3.602   3.211  22.451  0.00  0.00    +0.000 C 
BRANCH  10  11
ATOM     11  C   UNL     1       2.481   3.949  21.732  0.00  0.00    +0.000 C 
ATOM     12  C   UNL     1       2.067   5.201  22.468  0.00  0.00    +0.000 C 
ENDBRANCH  10  11
ENDBRANCH   9  10
ENDBRANCH   8   9
ENDBRANCH   7   8
ENDBRANCH   1   7
TORSDOF 8
ENDMDL
MODEL 3
REMARK VINA RESULT:    -5.312      2.700      5.403
REMARK INTER + INTRA:          -8.155
REMARK INTER:                  -7.404
REMARK INTRA:                  -0.751
REMARK UNBOUND:                -0.358
REMARK  Name = 3U9Q_A_1_DKA
REMARK  8 active torsions:
REMARK  status: ('A' for Active; 'I' for Inactive)
REMARK    1  A    between atoms: C_1  and  C_3
REMARK    2  A    between atoms: C_3  and  C_4
REMARK    3  A    between atoms: C_4  and  C_5
REMARK    4  A    between atoms: C_5  and  C_6
REMARK    5  A    between atoms: C_6  and  C_7
REMARK    6  A    between atoms: C_7  and  C_8
REMARK    7  A    between atoms: C_8  and  C_9
REMARK    8  A    between atoms: C_9  and  C_10
REMARK                            x       y       z     vdW  Elec       q    Type
REMARK                         _______ _______ _______ _____ _____    ______ ____
ROOT
ATOM      1  C   UNL     1       1.746  -0.421  22.968  0.00  0.00    +0.000 C 
ENDROOT
BRANCH   1   2
ATOM      2  C   UNL     1       2.041  -1.326  21.775  0.00  0.00    +0.000 C 
BRANCH   2   3
ATOM      3  C   UNL     1       3.012  -0.726  20.743  0.00  0.00    +0.000 C 
BRANCH   3   4
ATOM      4  C   UNL     1       4.457  -0.936  21.169  0.00  0.00    +0.000 C 
ATOM      5  O   UNL     1       5.242  -0.001  21.325  0.00  0.00    +0.000 OA
ATOM      6  O   UNL     1       4.962  -2.155  21.386  0.00  0.00    +0.000 OA
ENDBRANCH   3   4
ENDBRANCH   2   3
ENDBRANCH   1   2
BRANCH   1   7
ATOM      7  C   UNL     1       1.913   1.047  22.609  0.00  0.00    +0.000 C 
BRANCH   7   8
ATOM      8  C   UNL     1       3.015   1.721  23.427  0.00  0.00    +0.000 C 
BRANCH   8   9
ATOM      9  C   UNL     1       3.572   2.931  22.706  0.00  0.00    +0.000 C 
BRANCH   9  10
ATOM     10  C   UNL     1       2.974   3.111  21.313  0.00  0.00    +0.000 C 
BRANCH  10  11
ATOM     11  C   UNL     1       2.432   4.522  21.138  0.00  0.00    +0.000 C 
ATOM     12  C   UNL     1       2.217   5.212  22.464  0.00  0.00    +0.000 C 
ENDBRANCH  10  11
ENDBRANCH   9  10
ENDBRANCH   8   9
ENDBRANCH   7   8
ENDBRANCH   1   7
TORSDOF 8
ENDMDL
MODEL 4
REMARK VINA RESULT:    -5.185      1.181      1.752
REMARK INTER + INTRA:          -7.968
REMARK INTER:                  -7.535
REMARK INTRA:                  -0.433
REMARK UNBOUND:                -0.358
REMARK  Name = 3U9Q_A_1_DKA
REMARK  8 active torsions:
REMARK  status: ('A' for Active; 'I' for Inactive)
REMARK    1  A    between atoms: C_1  and  C_3
REMARK    2  A    between atoms: C_3  and  C_4
REMARK    3  A    between atoms: C_4  and  C_5
REMARK    4  A    between atoms: C_5  and  C_6
REMARK    5  A    between atoms: C_6  and  C_7
REMARK    6  A    between atoms: C_7  and  C_8
REMARK    7  A    between atoms: C_8  and  C_9
REMARK    8  A    between atoms: C_9  and  C_10
REMARK                            x       y       z     vdW  Elec       q    Type
REMARK                         _______ _______ _______ _____ _____    ______ ____
ROOT
ATOM      1  C   UNL     1       1.036   0.249  22.583  0.00  0.00    +0.000 C 
ENDROOT
BRANCH   1   2
ATOM      2  C   UNL     1       1.693   1.577  22.216  0.00  0.00    +0.000 C 
BRANCH   2   3
ATOM      3  C   UNL     1       3.230   1.569  22.281  0.00  0.00    +0.000 C 
BRANCH   3   4
ATOM      4  C   UNL     1       3.834   1.917  20.928  0.00  0.00    +0.000 C 
ATOM      5  O   UNL     1       4.177   1.057  20.118  0.00  0.00    +0.000 OA
ATOM      6  O   UNL     1       4.039   3.182  20.549  0.00  0.00    +0.000 OA
ENDBRANCH   3   4
ENDBRANCH   2   3
ENDBRANCH   1   2
BRANCH   1   7
ATOM      7  C   UNL     1       1.784  -0.929  21.981  0.00  0.00    +0.000 C 
BRANCH   7   8
ATOM      8  C   UNL     1       2.197  -1.954  23.037  0.00  0.00    +0.000 C 
BRANCH   8   9
ATOM      9  C   UNL     1       1.012  -2.388  23.875  0.00  0.00    +0.000 C 
BRANCH   9  10
ATOM     10  C   UNL     1       1.234  -2.160  25.368  0.00  0.00    +0.000 C 
BRANCH  10  11
ATOM     11  C   UNL     1      -0.093  -2.139  26.113  0.00  0.00    +0.000 C 
ATOM     12  C   UNL     1      -0.013  -2.879  27.427  0.00  0.00    +0.000 C 
ENDBRANCH  10  11
ENDBRANCH   9  10
ENDBRANCH   8   9
ENDBRANCH   7   8
ENDBRANCH   1   7
TORSDOF 8
ENDMDL
MODEL 5
REMARK VINA RESULT:    -5.144      2.413      2.904
REMARK INTER + INTRA:          -7.908
REMARK INTER:                  -7.587
REMARK INTRA:                  -0.321
REMARK UNBOUND:                -0.358
REMARK  Name = 3U9Q_A_1_DKA
REMARK  8 active torsions:
REMARK  status: ('A' for Active; 'I' for Inactive)
REMARK    1  A    between atoms: C_1  and  C_3
REMARK    2  A    between atoms: C_3  and  C_4
REMARK    3  A    between atoms: C_4  and  C_5
REMARK    4  A    between atoms: C_5  and  C_6
REMARK    5  A    between atoms: C_6  and  C_7
REMARK    6  A    between atoms: C_7  and  C_8
REMARK    7  A    between atoms: C_8  and  C_9
REMARK    8  A    between atoms: C_9  and  C_10
REMARK                            x       y       z     vdW  Elec       q    Type
REMARK                         _______ _______ _______ _____ _____    ______ ____
ROOT
ATOM      1  C   UNL     1       2.792   0.852  22.262  0.00  0.00    +0.000 C 
ENDROOT
BRANCH   1   2
ATOM      2  C   UNL     1       3.710  -0.098  21.498  0.00  0.00    +0.000 C 
BRANCH   2   3
ATOM      3  C   UNL     1       3.746   0.134  19.977  0.00  0.00    +0.000 C 
BRANCH   3   4
ATOM      4  C   UNL     1       4.842  -0.696  19.326  0.00  0.00    +0.000 C 
ATOM      5  O   UNL     1       4.608  -1.743  18.724  0.00  0.00    +0.000 OA
ATOM      6  O   UNL     1       6.130  -0.341  19.384  0.00  0.00    +0.000 OA
ENDBRANCH   3   4
ENDBRANCH   2   3
ENDBRANCH   1   2
BRANCH   1   7
ATOM      7  C   UNL     1       1.384   0.291  22.381  0.00  0.00    +0.000 C 
BRANCH   7   8
ATOM      8  C   UNL     1       1.381  -1.201  22.717  0.00  0.00    +0.000 C 
BRANCH   8   9
ATOM      9  C   UNL     1       1.529  -1.430  24.207  0.00  0.00    +0.000 C 
BRANCH   9  10
ATOM     10  C   UNL     1       0.733  -2.636  24.696  0.00  0.00    +0.000 C 
BRANCH  10  11
ATOM     11  C   UNL     1      -0.339  -2.208  25.688  0.00  0.00    +0.000 C 
ATOM     12  C   UNL     1      -0.031  -2.679  27.090  0.00  0.00    +0.000 C 
ENDBRANCH  10  11
ENDBRANCH   9  10
ENDBRANCH   8   9
ENDBRANCH   7   8
ENDBRANCH   1   7
TORSDOF 8
ENDMDL
MODEL 6
REMARK VINA RESULT:    -4.890      3.465      6.405
REMARK INTER + INTRA:          -7.535
REMARK INTER:                  -7.177
REMARK INTRA:                  -0.358
REMARK UNBOUND:                -0.358
REMARK  Name = 3U9Q_A_1_DKA
REMARK  8 active torsions:
REMARK  status: ('A' for Active; 'I' for Inactive)
REMARK    1  A    between atoms: C_1  and  C_3
REMARK    2  A    between atoms: C_3  and  C_4
REMARK    3  A    between atoms: C_4  and  C_5
REMARK    4  A    between atoms: C_5  and  C_6
REMARK    5  A    between atoms: C_6  and  C_7
REMARK    6  A    between atoms: C_7  and  C_8
REMARK    7  A    between atoms: C_8  and  C_9
REMARK    8  A    between atoms: C_9  and  C_10
REMARK                            x       y       z     vdW  Elec       q    Type
REMARK                         _______ _______ _______ _____ _____    ______ ____
ROOT
ATOM      1  C   UNL     1       3.140  -0.164  21.946  0.00  0.00    +0.000 C 
ENDROOT
BRANCH   1   2
ATOM      2  C   UNL     1       2.264   0.086  23.170  0.00  0.00    +0.000 C 
BRANCH   2   3
ATOM      3  C   UNL     1       0.958  -0.728  23.197  0.00  0.00    +0.000 C 
BRANCH   3   4
ATOM      4  C   UNL     1       1.073  -1.910  24.149  0.00  0.00    +0.000 C 
ATOM      5  O   UNL     1       1.719  -2.920  23.872  0.00  0.00    +0.000 OA
ATOM      6  O   UNL     1       0.464  -1.922  25.339  0.00  0.00    +0.000 OA
ENDBRANCH   3   4
ENDBRANCH   2   3
ENDBRANCH   1   2
BRANCH   1   7
ATOM      7  C   UNL     1       4.105   0.985  21.706  0.00  0.00    +0.000 C 
BRANCH   7   8
ATOM      8  C   UNL     1       3.822   2.179  22.619  0.00  0.00    +0.000 C 
BRANCH   8   9
ATOM      9  C   UNL     1       4.107   3.489  21.915  0.00  0.00    +0.000 C 
BRANCH   9  10
ATOM     10  C   UNL     1       3.086   3.804  20.825  0.00  0.00    +0.000 C 
BRANCH  10  11
ATOM     11  C   UNL     1       2.121   4.887  21.287  0.00  0.00    +0.000 C 
ATOM     12  C   UNL     1       2.357   5.274  22.728  0.00  0.00    +0.000 C 
ENDBRANCH  10  11
ENDBRANCH   9  10
ENDBRANCH   8   9
ENDBRANCH   7   8
ENDBRANCH   1   7
TORSDOF 8
ENDMDL
MODEL 7
REMARK VINA RESULT:    -4.868      8.683     11.020
REMARK INTER + INTRA:          -7.502
REMARK INTER:                  -7.141
REMARK INTRA:                  -0.361
REMARK UNBOUND:                -0.358
REMARK  Name = 3U9Q_A_1_DKA
REMARK  8 active torsions:
REMARK  status: ('A' for Active; 'I' for Inactive)
REMARK    1  A    between atoms: C_1  and  C_3
REMARK    2  A    between atoms: C_3  and  C_4
REMARK    3  A    between atoms: C_4  and  C_5
REMARK    4  A    between atoms: C_5  and  C_6
REMARK    5  A    between atoms: C_6  and  C_7
REMARK    6  A    between atoms: C_7  and  C_8
REMARK    7  A    between atoms: C_8  and  C_9
REMARK    8  A    between atoms: C_9  and  C_10
REMARK                            x       y       z     vdW  Elec       q    Type
REMARK                         _______ _______ _______ _____ _____    ______ ____
ROOT
ATOM      1  C   UNL     1       9.206  -2.665  19.308  0.00  0.00    +0.000 C 
ENDROOT
BRANCH   1   2
ATOM      2  C   UNL     1       7.779  -2.239  18.975  0.00  0.00    +0.000 C 
BRANCH   2   3
ATOM      3  C   UNL     1       6.736  -2.610  20.044  0.00  0.00    +0.000 C 
BRANCH   3   4
ATOM      4  C   UNL     1       6.733  -1.594  21.176  0.00  0.00    +0.000 C 
ATOM      5  O   UNL     1       6.037  -0.580  21.152  0.00  0.00    +0.000 OA
ATOM      6  O   UNL     1       7.502  -1.740  22.260  0.00  0.00    +0.000 OA
ENDBRANCH   3   4
ENDBRANCH   2   3
ENDBRANCH   1   2
BRANCH   1   7
ATOM      7  C   UNL     1      10.200  -2.134  18.287  0.00  0.00    +0.000 C 
BRANCH   7   8
ATOM      8  C   UNL     1      10.825  -3.252  17.452  0.00  0.00    +0.000 C 
BRANCH   8   9
ATOM      9  C   UNL     1      11.366  -2.722  16.140  0.00  0.00    +0.000 C 
BRANCH   9  10
ATOM     10  C   UNL     1      11.303  -1.199  16.053  0.00  0.00    +0.000 C 
BRANCH  10  11
ATOM     11  C   UNL     1      12.020  -0.701  14.806  0.00  0.00    +0.000 C 
ATOM     12  C   UNL     1      13.511  -0.591  15.019  0.00  0.00    +0.000 C 
ENDBRANCH  10  11
ENDBRANCH   9  10
ENDBRANCH   8   9
ENDBRANCH   7   8
ENDBRANCH   1   7
TORSDOF 8
ENDMDL
MODEL 8
REMARK VINA RESULT:    -4.818      3.173      5.298
REMARK INTER + INTRA:          -7.429
REMARK INTER:                  -7.034
REMARK INTRA:                  -0.396
REMARK UNBOUND:                -0.358
REMARK  Name = 3U9Q_A_1_DKA
REMARK  8 active torsions:
REMARK  status: ('A' for Active; 'I' for Inactive)
REMARK    1  A    between atoms: C_1  and  C_3
REMARK    2  A    between atoms: C_3  and  C_4
REMARK    3  A    between atoms: C_4  and  C_5
REMARK    4  A    between atoms: C_5  and  C_6
REMARK    5  A    between atoms: C_6  and  C_7
REMARK    6  A    between atoms: C_7  and  C_8
REMARK    7  A    between atoms: C_8  and  C_9
REMARK    8  A    between atoms: C_9  and  C_10
REMARK                            x       y       z     vdW  Elec       q    Type
REMARK                         _______ _______ _______ _____ _____    ______ ____
ROOT
ATOM      1  C   UNL     1       3.442  -0.944  21.520  0.00  0.00    +0.000 C 
ENDROOT
BRANCH   1   2
ATOM      2  C   UNL     1       3.383  -0.798  20.002  0.00  0.00    +0.000 C 
BRANCH   2   3
ATOM      3  C   UNL     1       4.229  -1.824  19.229  0.00  0.00    +0.000 C 
BRANCH   3   4
ATOM      4  C   UNL     1       5.693  -1.413  19.202  0.00  0.00    +0.000 C 
ATOM      5  O   UNL     1       6.049  -0.236  19.220  0.00  0.00    +0.000 OA
ATOM      6  O   UNL     1       6.681  -2.313  19.144  0.00  0.00    +0.000 OA
ENDBRANCH   3   4
ENDBRANCH   2   3
ENDBRANCH   1   2
BRANCH   1   7
ATOM      7  C   UNL     1       2.060  -1.161  22.114  0.00  0.00    +0.000 C 
BRANCH   7   8
ATOM      8  C   UNL     1       1.340   0.158  22.401  0.00  0.00    +0.000 C 
BRANCH   8   9
ATOM      9  C   UNL     1       2.322   1.254  22.760  0.00  0.00    +0.000 C 
BRANCH   9  10
ATOM     10  C   UNL     1       2.095   2.531  21.956  0.00  0.00    +0.000 C 
BRANCH  10  11
ATOM     11  C   UNL     1       2.912   3.681  22.529  0.00  0.00    +0.000 C 
ATOM     12  C   UNL     1       2.172   4.995  22.443  0.00  0.00    +0.000 C 
ENDBRANCH  10  11
ENDBRANCH   9  10
ENDBRANCH   8   9
ENDBRANCH   7   8
ENDBRANCH   1   7
TORSDOF 8
ENDMDL
MODEL 9
REMARK VINA RESULT:    -4.777      9.928     10.715
REMARK INTER + INTRA:          -7.370
REMARK INTER:                  -6.882
REMARK INTRA:                  -0.488
REMARK UNBOUND:                -0.358
REMARK  Name = 3U9Q_A_1_DKA
REMARK  8 active torsions:
REMARK  status: ('A' for Active; 'I' for Inactive)
REMARK    1  A    between atoms: C_1  and  C_3
REMARK    2  A    between atoms: C_3  and  C_4
REMARK    3  A    between atoms: C_4  and  C_5
REMARK    4  A    between atoms: C_5  and  C_6
REMARK    5  A    between atoms: C_6  and  C_7
REMARK    6  A    between atoms: C_7  and  C_8
REMARK    7  A    between atoms: C_8  and  C_9
REMARK    8  A    between atoms: C_9  and  C_10
REMARK                            x       y       z     vdW  Elec       q    Type
REMARK                         _______ _______ _______ _____ _____    ______ ____
ROOT
ATOM      1  C   UNL     1      10.366  -1.884  18.244  0.00  0.00    +0.000 C 
ENDROOT
BRANCH   1   2
ATOM      2  C   UNL     1      10.883  -2.313  16.874  0.00  0.00    +0.000 C 
BRANCH   2   3
ATOM      3  C   UNL     1      11.503  -3.721  16.837  0.00  0.00    +0.000 C 
BRANCH   3   4
ATOM      4  C   UNL     1      12.859  -3.701  16.148  0.00  0.00    +0.000 C 
ATOM      5  O   UNL     1      13.447  -4.730  15.819  0.00  0.00    +0.000 OA
ATOM      6  O   UNL     1      13.497  -2.559  15.873  0.00  0.00    +0.000 OA
ENDBRANCH   3   4
ENDBRANCH   2   3
ENDBRANCH   1   2
BRANCH   1   7
ATOM      7  C   UNL     1       9.017  -2.512  18.553  0.00  0.00    +0.000 C 
BRANCH   7   8
ATOM      8  C   UNL     1       8.960  -3.098  19.964  0.00  0.00    +0.000 C 
BRANCH   8   9
ATOM      9  C   UNL     1      10.104  -4.062  20.205  0.00  0.00    +0.000 C 
BRANCH   9  10
ATOM     10  C   UNL     1       9.793  -5.078  21.302  0.00  0.00    +0.000 C 
BRANCH  10  11
ATOM     11  C   UNL     1       8.515  -4.701  22.038  0.00  0.00    +0.000 C 
ATOM     12  C   UNL     1       7.503  -5.823  22.021  0.00  0.00    +0.000 C 
ENDBRANCH  10  11
ENDBRANCH   9  10
ENDBRANCH   8   9
ENDBRANCH   7   8
ENDBRANCH   1   7
TORSDOF 8
ENDMDL
