MODEL 1
REMARK VINA RESULT:    -6.879      0.000      0.000
REMARK INTER + INTRA:          -9.193
REMARK INTER:                  -8.694
REMARK INTRA:                  -0.499
REMARK UNBOUND:                -0.303
REMARK  Name = 2CEO_A_1395_T44
REMARK  5 active torsions:
REMARK  status: ('A' for Active; 'I' for Inactive)
REMARK    1  A    between atoms: C_1  and  C_7
REMARK    2  A    between atoms: C_4  and  O_17
REMARK    3  A    between atoms: C_7  and  CA_8
REMARK    4  A    between atoms: CA_8  and  C_9
REMARK    5  A    between atoms: C_10  and  O_17
REMARK                            x       y       z     vdW  Elec       q    Type
REMARK                         _______ _______ _______ _____ _____    ______ ____
ROOT
ATOM      1  C   UNL     1      -7.185  -2.297 -40.722  0.00  0.00    +0.000 C 
ATOM      2  C   UNL     1      -7.578  -1.865 -39.444  0.00  0.00    +0.000 C 
ATOM      3  C   UNL     1      -7.297  -0.582 -38.983  0.00  0.00    +0.000 C 
ATOM      4  C   UNL     1      -6.558   0.328 -39.877  0.00  0.00    +0.000 C 
ATOM      5  C   UNL     1      -6.161  -0.168 -41.204  0.00  0.00    +0.000 C 
ATOM      6  C   UNL     1      -6.480  -1.466 -41.596  0.00  0.00    +0.000 C 
ATOM      7  I   UNL     1      -7.874   0.089 -37.089  0.00  0.00    +0.000 I 
ATOM      8  I   UNL     1      -5.130   1.186 -42.394  0.00  0.00    +0.000 I 
ENDROOT
BRANCH   1   9
ATOM      9  C   UNL     1      -7.514  -3.707 -41.162  0.00  0.00    +0.000 C 
BRANCH   9  10
ATOM     10  CA  UNL     1      -8.165  -4.533 -40.052  0.00  0.00    +0.000 C 
ATOM     11  N   UNL     1      -7.249  -5.580 -39.625  0.00  0.00    +0.000 NA
BRANCH  10  12
ATOM     12  C   UNL     1      -9.512  -5.085 -40.467  0.00  0.00    +0.000 C 
ATOM     13  O   UNL     1     -10.436  -4.296 -40.770  0.00  0.00    +0.000 OA
ATOM     14  OXT UNL     1      -9.669  -6.328 -40.507  0.00  0.00    +0.000 OA
ENDBRANCH  10  12
ENDBRANCH   9  10
ENDBRANCH   1   9
BRANCH   4  15
ATOM     15  O   UNL     1      -6.242   1.609 -39.509  0.00  0.00    +0.000 OA
BRANCH  15  16
ATOM     16  C   UNL     1      -7.158   2.632 -39.608  0.00  0.00    +0.000 C 
ATOM     17  C   UNL     1      -8.186   2.579 -40.555  0.00  0.00    +0.000 C 
ATOM     18  C   UNL     1      -9.122   3.605 -40.668  0.00  0.00    +0.000 C 
ATOM     19  C   UNL     1      -9.029   4.773 -39.768  0.00  0.00    +0.000 C 
ATOM     20  C   UNL     1      -7.930   4.778 -38.791  0.00  0.00    +0.000 C 
ATOM     21  C   UNL     1      -7.034   3.716 -38.735  0.00  0.00    +0.000 C 
ATOM     22  O   UNL     1      -9.914   5.808 -39.820  0.00  0.00    +0.000 OA
ATOM     23  I   UNL     1     -10.658   3.528 -42.074  0.00  0.00    +0.000 I 
ATOM     24  I   UNL     1      -7.780   6.411 -37.522  0.00  0.00    +0.000 I 
ENDBRANCH  15  16
ENDBRANCH   4  15
TORSDOF 5
ENDMDL
MODEL 2
REMARK VINA RESULT:    -6.871      4.217      6.798
REMARK INTER + INTRA:          -9.182
REMARK INTER:                  -8.712
REMARK INTRA:                  -0.470
REMARK UNBOUND:                -0.303
REMARK  Name = 2CEO_A_1395_T44
REMARK  5 active torsions:
REMARK  status: ('A' for Active; 'I' for Inactive)
REMARK    1  A    between atoms: C_1  and  C_7
REMARK    2  A    between atoms: C_4  and  O_17
REMARK    3  A    between atoms: C_7  and  CA_8
REMARK    4  A    between atoms: CA_8  and  C_9
REMARK    5  A    between atoms: C_10  and  O_17
REMARK                            x       y       z     vdW  Elec       q    Type
REMARK                         _______ _______ _______ _____ _____    ______ ____
ROOT
ATOM      1  C   UNL     1      -8.597  -2.379 -42.010  0.00  0.00    +0.000 C 
ATOM      2  C   UNL     1      -8.407  -2.839 -43.324  0.00  0.00    +0.000 C 
ATOM      3  C   UNL     1      -7.584  -2.170 -44.226  0.00  0.00    +0.000 C 
ATOM      4  C   UNL     1      -6.912  -0.941 -43.768  0.00  0.00    +0.000 C 
ATOM      5  C   UNL     1      -7.144  -0.491 -42.386  0.00  0.00    +0.000 C 
ATOM      6  C   UNL     1      -7.981  -1.216 -41.541  0.00  0.00    +0.000 C 
ATOM      7  I   UNL     1      -7.277  -2.836 -46.184  0.00  0.00    +0.000 I 
ATOM      8  I   UNL     1      -6.151   1.246 -41.831  0.00  0.00    +0.000 I 
ENDROOT
BRANCH   1   9
ATOM      9  C   UNL     1      -9.510  -3.147 -41.080  0.00  0.00    +0.000 C 
BRANCH   9  10
ATOM     10  CA  UNL     1      -9.064  -4.596 -40.883  0.00  0.00    +0.000 C 
ATOM     11  N   UNL     1     -10.220  -5.422 -40.571  0.00  0.00    +0.000 NA
BRANCH  10  12
ATOM     12  C   UNL     1      -7.973  -4.720 -39.840  0.00  0.00    +0.000 C 
ATOM     13  O   UNL     1      -7.281  -5.763 -39.792  0.00  0.00    +0.000 OA
ATOM     14  OXT UNL     1      -7.780  -3.766 -39.051  0.00  0.00    +0.000 OA
ENDBRANCH  10  12
ENDBRANCH   9  10
ENDBRANCH   1   9
BRANCH   4  15
ATOM     15  O   UNL     1      -6.081  -0.220 -44.585  0.00  0.00    +0.000 OA
BRANCH  15  16
ATOM     16  C   UNL     1      -4.736  -0.498 -44.668  0.00  0.00    +0.000 C 
ATOM     17  C   UNL     1      -4.226  -1.708 -44.184  0.00  0.00    +0.000 C 
ATOM     18  C   UNL     1      -2.868  -2.007 -44.261  0.00  0.00    +0.000 C 
ATOM     19  C   UNL     1      -1.944  -1.026 -44.867  0.00  0.00    +0.000 C 
ATOM     20  C   UNL     1      -2.530   0.230 -45.359  0.00  0.00    +0.000 C 
ATOM     21  C   UNL     1      -3.898   0.457 -45.251  0.00  0.00    +0.000 C 
ATOM     22  O   UNL     1      -0.605  -1.255 -44.979  0.00  0.00    +0.000 OA
ATOM     23  I   UNL     1      -2.106  -3.809 -43.546  0.00  0.00    +0.000 I 
ATOM     24  I   UNL     1      -1.249   1.620 -46.208  0.00  0.00    +0.000 I 
ENDBRANCH  15  16
ENDBRANCH   4  15
TORSDOF 5
ENDMDL
MODEL 3
REMARK VINA RESULT:    -6.866      4.277      6.669
REMARK INTER + INTRA:          -9.176
REMARK INTER:                  -8.631
REMARK INTRA:                  -0.544
REMARK UNBOUND:                -0.303
REMARK  Name = 2CEO_A_1395_T44
REMARK  5 active torsions:
REMARK  status: ('A' for Active; 'I' for Inactive)
REMARK    1  A    between atoms: C_1  and  C_7
REMARK    2  A    between atoms: C_4  and  O_17
REMARK    3  A    between atoms: C_7  and  CA_8
REMARK    4  A    between atoms: CA_8  and  C_9
REMARK    5  A    between atoms: C_10  and  O_17
REMARK                            x       y       z     vdW  Elec       q    Type
REMARK                         _______ _______ _______ _____ _____    ______ ____
ROOT
ATOM      1  C   UNL     1      -8.585  -2.410 -42.050  0.00  0.00    +0.000 C 
ATOM      2  C   UNL     1      -7.918  -1.253 -41.614  0.00  0.00    +0.000 C 
ATOM      3  C   UNL     1      -7.083  -0.525 -42.457  0.00  0.00    +0.000 C 
ATOM      4  C   UNL     1      -6.902  -1.007 -43.838  0.00  0.00    +0.000 C 
ATOM      5  C   UNL     1      -7.614  -2.227 -44.250  0.00  0.00    +0.000 C 
ATOM      6  C   UNL     1      -8.436  -2.902 -43.349  0.00  0.00    +0.000 C 
ATOM      7  I   UNL     1      -6.083   1.204 -41.837  0.00  0.00    +0.000 I 
ATOM      8  I   UNL     1      -7.302  -2.826 -46.214  0.00  0.00    +0.000 I 
ENDROOT
BRANCH   1   9
ATOM      9  C   UNL     1      -9.474  -3.162 -41.084  0.00  0.00    +0.000 C 
BRANCH   9  10
ATOM     10  CA  UNL     1      -9.029  -4.611 -40.881  0.00  0.00    +0.000 C 
ATOM     11  N   UNL     1     -10.188  -5.438 -40.583  0.00  0.00    +0.000 NA
BRANCH  10  12
ATOM     12  C   UNL     1      -7.951  -4.734 -39.825  0.00  0.00    +0.000 C 
ATOM     13  O   UNL     1      -7.787  -3.808 -38.999  0.00  0.00    +0.000 OA
ATOM     14  OXT UNL     1      -7.249  -5.772 -39.797  0.00  0.00    +0.000 OA
ENDBRANCH  10  12
ENDBRANCH   9  10
ENDBRANCH   1   9
BRANCH   4  15
ATOM     15  O   UNL     1      -6.103  -0.352 -44.737  0.00  0.00    +0.000 OA
BRANCH  15  16
ATOM     16  C   UNL     1      -4.744  -0.569 -44.783  0.00  0.00    +0.000 C 
ATOM     17  C   UNL     1      -4.194  -1.754 -44.283  0.00  0.00    +0.000 C 
ATOM     18  C   UNL     1      -2.822  -1.991 -44.322  0.00  0.00    +0.000 C 
ATOM     19  C   UNL     1      -1.927  -0.971 -44.905  0.00  0.00    +0.000 C 
ATOM     20  C   UNL     1      -2.556   0.256 -45.417  0.00  0.00    +0.000 C 
ATOM     21  C   UNL     1      -3.936   0.421 -45.346  0.00  0.00    +0.000 C 
ATOM     22  O   UNL     1      -0.577  -1.139 -44.981  0.00  0.00    +0.000 OA
ATOM     23  I   UNL     1      -1.999  -3.756 -43.581  0.00  0.00    +0.000 I 
ATOM     24  I   UNL     1      -1.316   1.702 -46.236  0.00  0.00    +0.000 I 
ENDBRANCH  15  16
ENDBRANCH   4  15
TORSDOF 5
ENDMDL
MODEL 4
REMARK VINA RESULT:    -6.831      0.101      2.028
REMARK INTER + INTRA:          -9.131
REMARK INTER:                  -8.688
REMARK INTRA:                  -0.443
REMARK UNBOUND:                -0.303
REMARK  Name = 2CEO_A_1395_T44
REMARK  5 active torsions:
REMARK  status: ('A' for Active; 'I' for Inactive)
REMARK    1  A    between atoms: C_1  and  C_7
REMARK    2  A    between atoms: C_4  and  O_17
REMARK    3  A    between atoms: C_7  and  CA_8
REMARK    4  A    between atoms: CA_8  and  C_9
REMARK    5  A    between atoms: C_10  and  O_17
REMARK                            x       y       z     vdW  Elec       q    Type
REMARK                         _______ _______ _______ _____ _____    ______ ____
ROOT
ATOM      1  C   UNL     1      -7.125  -2.251 -40.662  0.00  0.00    +0.000 C 
ATOM      2  C   UNL     1      -6.472  -1.379 -41.549  0.00  0.00    +0.000 C 
ATOM      3  C   UNL     1      -6.162  -0.069 -41.198  0.00  0.00    +0.000 C 
ATOM      4  C   UNL     1      -6.548   0.397 -39.853  0.00  0.00    +0.000 C 
ATOM      5  C   UNL     1      -7.236  -0.547 -38.959  0.00  0.00    +0.000 C 
ATOM      6  C   UNL     1      -7.511  -1.846 -39.381  0.00  0.00    +0.000 C 
ATOM      7  I   UNL     1      -5.185   1.248 -42.495  0.00  0.00    +0.000 I 
ATOM      8  I   UNL     1      -7.735   0.196 -37.085  0.00  0.00    +0.000 I 
ENDROOT
BRANCH   1   9
ATOM      9  C   UNL     1      -7.441  -3.662 -41.106  0.00  0.00    +0.000 C 
BRANCH   9  10
ATOM     10  CA  UNL     1      -8.164  -4.470 -40.028  0.00  0.00    +0.000 C 
ATOM     11  N   UNL     1      -7.288  -5.525 -39.542  0.00  0.00    +0.000 NA
BRANCH  10  12
ATOM     12  C   UNL     1      -9.493  -5.008 -40.513  0.00  0.00    +0.000 C 
ATOM     13  O   UNL     1     -10.393  -4.209 -40.858  0.00  0.00    +0.000 OA
ATOM     14  OXT UNL     1      -9.659  -6.249 -40.567  0.00  0.00    +0.000 OA
ENDBRANCH  10  12
ENDBRANCH   9  10
ENDBRANCH   1   9
BRANCH   4  15
ATOM     15  O   UNL     1      -6.280   1.668 -39.420  0.00  0.00    +0.000 OA
BRANCH  15  16
ATOM     16  C   UNL     1      -7.205   2.680 -39.543  0.00  0.00    +0.000 C 
ATOM     17  C   UNL     1      -8.212   2.612 -40.512  0.00  0.00    +0.000 C 
ATOM     18  C   UNL     1      -9.157   3.626 -40.649  0.00  0.00    +0.000 C 
ATOM     19  C   UNL     1      -9.097   4.798 -39.753  0.00  0.00    +0.000 C 
ATOM     20  C   UNL     1      -8.020   4.820 -38.751  0.00  0.00    +0.000 C 
ATOM     21  C   UNL     1      -7.113   3.768 -38.671  0.00  0.00    +0.000 C 
ATOM     22  O   UNL     1      -9.992   5.823 -39.828  0.00  0.00    +0.000 OA
ATOM     23  I   UNL     1     -10.660   3.527 -42.089  0.00  0.00    +0.000 I 
ATOM     24  I   UNL     1      -7.917   6.459 -37.486  0.00  0.00    +0.000 I 
ENDBRANCH  15  16
ENDBRANCH   4  15
TORSDOF 5
ENDMDL
MODEL 5
REMARK VINA RESULT:    -6.830      4.220      6.827
REMARK INTER + INTRA:          -9.130
REMARK INTER:                  -8.716
REMARK INTRA:                  -0.414
REMARK UNBOUND:                -0.303
REMARK  Name = 2CEO_A_1395_T44
REMARK  5 active torsions:
REMARK  status: ('A' for Active; 'I' for Inactive)
REMARK    1  A    between atoms: C_1  and  C_7
REMARK    2  A    between atoms: C_4  and  O_17
REMARK    3  A    between atoms: C_7  and  CA_8
REMARK    4  A    between atoms: CA_8  and  C_9
REMARK    5  A    between atoms: C_10  and  O_17
REMARK                            x       y       z     vdW  Elec       q    Type
REMARK                         _______ _______ _______ _____ _____    ______ ____
ROOT
ATOM      1  C   UNL     1      -8.591  -2.375 -42.019  0.00  0.00    +0.000 C 
ATOM      2  C   UNL     1      -8.395  -2.852 -43.326  0.00  0.00    +0.000 C 
ATOM      3  C   UNL     1      -7.589  -2.181 -44.241  0.00  0.00    +0.000 C 
ATOM      4  C   UNL     1      -6.941  -0.930 -43.804  0.00  0.00    +0.000 C 
ATOM      5  C   UNL     1      -7.178  -0.465 -42.429  0.00  0.00    +0.000 C 
ATOM      6  C   UNL     1      -7.998  -1.193 -41.569  0.00  0.00    +0.000 C 
ATOM      7  I   UNL     1      -7.276  -2.870 -46.190  0.00  0.00    +0.000 I 
ATOM      8  I   UNL     1      -6.219   1.301 -41.904  0.00  0.00    +0.000 I 
ENDROOT
BRANCH   1   9
ATOM      9  C   UNL     1      -9.485  -3.147 -41.074  0.00  0.00    +0.000 C 
BRANCH   9  10
ATOM     10  CA  UNL     1      -9.025  -4.593 -40.879  0.00  0.00    +0.000 C 
ATOM     11  N   UNL     1     -10.178  -5.436 -40.601  0.00  0.00    +0.000 NA
BRANCH  10  12
ATOM     12  C   UNL     1      -7.958  -4.714 -39.812  0.00  0.00    +0.000 C 
ATOM     13  O   UNL     1      -7.266  -5.756 -39.747  0.00  0.00    +0.000 OA
ATOM     14  OXT UNL     1      -7.784  -3.758 -39.021  0.00  0.00    +0.000 OA
ENDBRANCH  10  12
ENDBRANCH   9  10
ENDBRANCH   1   9
BRANCH   4  15
ATOM     15  O   UNL     1      -6.128  -0.206 -44.635  0.00  0.00    +0.000 OA
BRANCH  15  16
ATOM     16  C   UNL     1      -4.776  -0.450 -44.710  0.00  0.00    +0.000 C 
ATOM     17  C   UNL     1      -3.911   0.495 -45.272  0.00  0.00    +0.000 C 
ATOM     18  C   UNL     1      -2.539   0.266 -45.355  0.00  0.00    +0.000 C 
ATOM     19  C   UNL     1      -1.984  -1.001 -44.837  0.00  0.00    +0.000 C 
ATOM     20  C   UNL     1      -2.936  -1.960 -44.256  0.00  0.00    +0.000 C 
ATOM     21  C   UNL     1      -4.294  -1.660 -44.205  0.00  0.00    +0.000 C 
ATOM     22  O   UNL     1      -0.653  -1.289 -44.881  0.00  0.00    +0.000 OA
ATOM     23  I   UNL     1      -1.248   1.672 -46.189  0.00  0.00    +0.000 I 
ATOM     24  I   UNL     1      -2.177  -3.746 -43.527  0.00  0.00    +0.000 I 
ENDBRANCH  15  16
ENDBRANCH   4  15
TORSDOF 5
ENDMDL
MODEL 6
REMARK VINA RESULT:    -6.797      4.277      6.720
REMARK INTER + INTRA:          -9.086
REMARK INTER:                  -8.573
REMARK INTRA:                  -0.513
REMARK UNBOUND:                -0.303
REMARK  Name = 2CEO_A_1395_T44
REMARK  5 active torsions:
REMARK  status: ('A' for Active; 'I' for Inactive)
REMARK    1  A    between atoms: C_1  and  C_7
REMARK    2  A    between atoms: C_4  and  O_17
REMARK    3  A    between atoms: C_7  and  CA_8
REMARK    4  A    between atoms: CA_8  and  C_9
REMARK    5  A    between atoms: C_10  and  O_17
REMARK                            x       y       z     vdW  Elec       q    Type
REMARK                         _______ _______ _______ _____ _____    ______ ____
ROOT
ATOM      1  C   UNL     1      -8.524  -2.326 -42.016  0.00  0.00    +0.000 C 
ATOM      2  C   UNL     1      -7.841  -1.167 -41.610  0.00  0.00    +0.000 C 
ATOM      3  C   UNL     1      -7.013  -0.460 -42.476  0.00  0.00    +0.000 C 
ATOM      4  C   UNL     1      -6.857  -0.967 -43.852  0.00  0.00    +0.000 C 
ATOM      5  C   UNL     1      -7.585  -2.187 -44.233  0.00  0.00    +0.000 C 
ATOM      6  C   UNL     1      -8.398  -2.840 -43.309  0.00  0.00    +0.000 C 
ATOM      7  I   UNL     1      -5.990   1.271 -41.901  0.00  0.00    +0.000 I 
ATOM      8  I   UNL     1      -7.307  -2.821 -46.191  0.00  0.00    +0.000 I 
ENDROOT
BRANCH   1   9
ATOM      9  C   UNL     1      -9.404  -3.054 -41.025  0.00  0.00    +0.000 C 
BRANCH   9  10
ATOM     10  CA  UNL     1      -9.016  -4.524 -40.862  0.00  0.00    +0.000 C 
ATOM     11  N   UNL     1     -10.209  -5.317 -40.611  0.00  0.00    +0.000 NA
BRANCH  10  12
ATOM     12  C   UNL     1      -7.963  -4.720 -39.791  0.00  0.00    +0.000 C 
ATOM     13  O   UNL     1      -7.761  -3.814 -38.951  0.00  0.00    +0.000 OA
ATOM     14  OXT UNL     1      -7.321  -5.796 -39.765  0.00  0.00    +0.000 OA
ENDBRANCH  10  12
ENDBRANCH   9  10
ENDBRANCH   1   9
BRANCH   4  15
ATOM     15  O   UNL     1      -6.066  -0.333 -44.773  0.00  0.00    +0.000 OA
BRANCH  15  16
ATOM     16  C   UNL     1      -4.704  -0.528 -44.807  0.00  0.00    +0.000 C 
ATOM     17  C   UNL     1      -3.856   0.452 -45.332  0.00  0.00    +0.000 C 
ATOM     18  C   UNL     1      -2.475   0.273 -45.373  0.00  0.00    +0.000 C 
ATOM     19  C   UNL     1      -1.892  -0.979 -44.849  0.00  0.00    +0.000 C 
ATOM     20  C   UNL     1      -2.827  -1.977 -44.308  0.00  0.00    +0.000 C 
ATOM     21  C   UNL     1      -4.195  -1.726 -44.298  0.00  0.00    +0.000 C 
ATOM     22  O   UNL     1      -0.550  -1.219 -44.853  0.00  0.00    +0.000 OA
ATOM     23  I   UNL     1      -1.209   1.733 -46.151  0.00  0.00    +0.000 I 
ATOM     24  I   UNL     1      -2.027  -3.743 -43.572  0.00  0.00    +0.000 I 
ENDBRANCH  15  16
ENDBRANCH   4  15
TORSDOF 5
ENDMDL
MODEL 7
REMARK VINA RESULT:    -6.683     23.348     25.127
REMARK INTER + INTRA:          -8.939
REMARK INTER:                  -8.510
REMARK INTRA:                  -0.428
REMARK UNBOUND:                -0.303
REMARK  Name = 2CEO_A_1395_T44
REMARK  5 active torsions:
REMARK  status: ('A' for Active; 'I' for Inactive)
REMARK    1  A    between atoms: C_1  and  C_7
REMARK    2  A    between atoms: C_4  and  O_17
REMARK    3  A    between atoms: C_7  and  CA_8
REMARK    4  A    between atoms: CA_8  and  C_9
REMARK    5  A    between atoms: C_10  and  O_17
REMARK                            x       y       z     vdW  Elec       q    Type
REMARK                         _______ _______ _______ _____ _____    ______ ____
ROOT
ATOM      1  C   UNL     1       7.605  -2.272 -58.494  0.00  0.00    +0.000 C 
ATOM      2  C   UNL     1       8.103  -1.759 -59.703  0.00  0.00    +0.000 C 
ATOM      3  C   UNL     1       7.741  -0.499 -60.173  0.00  0.00    +0.000 C 
ATOM      4  C   UNL     1       6.801   0.296 -59.363  0.00  0.00    +0.000 C 
ATOM      5  C   UNL     1       6.300  -0.281 -58.106  0.00  0.00    +0.000 C 
ATOM      6  C   UNL     1       6.709  -1.550 -57.701  0.00  0.00    +0.000 C 
ATOM      7  I   UNL     1       8.471   0.291 -61.966  0.00  0.00    +0.000 I 
ATOM      8  I   UNL     1       4.985   0.915 -57.032  0.00  0.00    +0.000 I 
ENDROOT
BRANCH   1   9
ATOM      9  C   UNL     1       8.031  -3.651 -58.041  0.00  0.00    +0.000 C 
BRANCH   9  10
ATOM     10  CA  UNL     1       8.581  -4.502 -59.186  0.00  0.00    +0.000 C 
ATOM     11  N   UNL     1       7.512  -5.316 -59.744  0.00  0.00    +0.000 NA
BRANCH  10  12
ATOM     12  C   UNL     1       9.770  -5.335 -58.758  0.00  0.00    +0.000 C 
ATOM     13  O   UNL     1       9.629  -6.566 -58.579  0.00  0.00    +0.000 OA
ATOM     14  OXT UNL     1      10.878  -4.770 -58.600  0.00  0.00    +0.000 OA
ENDBRANCH  10  12
ENDBRANCH   9  10
ENDBRANCH   1   9
BRANCH   4  15
ATOM     15  O   UNL     1       6.393   1.547 -59.745  0.00  0.00    +0.000 OA
BRANCH  15  16
ATOM     16  C   UNL     1       7.205   2.647 -59.588  0.00  0.00    +0.000 C 
ATOM     17  C   UNL     1       6.986   3.808 -60.338  0.00  0.00    +0.000 C 
ATOM     18  C   UNL     1       7.798   4.931 -60.192  0.00  0.00    +0.000 C 
ATOM     19  C   UNL     1       8.913   4.897 -59.225  0.00  0.00    +0.000 C 
ATOM     20  C   UNL     1       9.100   3.653 -58.462  0.00  0.00    +0.000 C 
ATOM     21  C   UNL     1       8.247   2.573 -58.660  0.00  0.00    +0.000 C 
ATOM     22  O   UNL     1       9.743   5.961 -59.027  0.00  0.00    +0.000 OA
ATOM     23  I   UNL     1       7.471   6.663 -61.303  0.00  0.00    +0.000 I 
ATOM     24  I   UNL     1      10.664   3.585 -57.103  0.00  0.00    +0.000 I 
ENDBRANCH  15  16
ENDBRANCH   4  15
TORSDOF 5
ENDMDL
MODEL 8
REMARK VINA RESULT:    -6.637     23.430     25.109
REMARK INTER + INTRA:          -8.880
REMARK INTER:                  -8.429
REMARK INTRA:                  -0.451
REMARK UNBOUND:                -0.303
REMARK  Name = 2CEO_A_1395_T44
REMARK  5 active torsions:
REMARK  status: ('A' for Active; 'I' for Inactive)
REMARK    1  A    between atoms: C_1  and  C_7
REMARK    2  A    between atoms: C_4  and  O_17
REMARK    3  A    between atoms: C_7  and  CA_8
REMARK    4  A    between atoms: CA_8  and  C_9
REMARK    5  A    between atoms: C_10  and  O_17
REMARK                            x       y       z     vdW  Elec       q    Type
REMARK                         _______ _______ _______ _____ _____    ______ ____
ROOT
ATOM      1  C   UNL     1       7.755  -2.072 -58.457  0.00  0.00    +0.000 C 
ATOM      2  C   UNL     1       6.909  -1.272 -57.670  0.00  0.00    +0.000 C 
ATOM      3  C   UNL     1       6.485  -0.014 -58.090  0.00  0.00    +0.000 C 
ATOM      4  C   UNL     1       6.960   0.474 -59.397  0.00  0.00    +0.000 C 
ATOM      5  C   UNL     1       7.849  -0.393 -60.185  0.00  0.00    +0.000 C 
ATOM      6  C   UNL     1       8.229  -1.642 -59.699  0.00  0.00    +0.000 C 
ATOM      7  I   UNL     1       5.222   1.194 -56.942  0.00  0.00    +0.000 I 
ATOM      8  I   UNL     1       8.460   0.378 -62.015  0.00  0.00    +0.000 I 
ENDROOT
BRANCH   1   9
ATOM      9  C   UNL     1       8.185  -3.427 -57.942  0.00  0.00    +0.000 C 
BRANCH   9  10
ATOM     10  CA  UNL     1       8.517  -4.406 -59.069  0.00  0.00    +0.000 C 
ATOM     11  N   UNL     1       7.328  -5.167 -59.418  0.00  0.00    +0.000 NA
BRANCH  10  12
ATOM     12  C   UNL     1       9.687  -5.301 -58.720  0.00  0.00    +0.000 C 
ATOM     13  O   UNL     1       9.501  -6.531 -58.573  0.00  0.00    +0.000 OA
ATOM     14  OXT UNL     1      10.825  -4.789 -58.596  0.00  0.00    +0.000 OA
ENDBRANCH  10  12
ENDBRANCH   9  10
ENDBRANCH   1   9
BRANCH   4  15
ATOM     15  O   UNL     1       6.591   1.697 -59.892  0.00  0.00    +0.000 OA
BRANCH  15  16
ATOM     16  C   UNL     1       7.348   2.823 -59.663  0.00  0.00    +0.000 C 
ATOM     17  C   UNL     1       8.387   2.806 -58.726  0.00  0.00    +0.000 C 
ATOM     18  C   UNL     1       9.164   3.936 -58.483  0.00  0.00    +0.000 C 
ATOM     19  C   UNL     1       8.888   5.180 -59.230  0.00  0.00    +0.000 C 
ATOM     20  C   UNL     1       7.786   5.145 -60.204  0.00  0.00    +0.000 C 
ATOM     21  C   UNL     1       7.055   3.977 -60.395  0.00  0.00    +0.000 C 
ATOM     22  O   UNL     1       9.612   6.320 -59.046  0.00  0.00    +0.000 OA
ATOM     23  I   UNL     1      10.714   3.913 -57.091  0.00  0.00    +0.000 I 
ATOM     24  I   UNL     1       7.381   6.882 -61.259  0.00  0.00    +0.000 I 
ENDBRANCH  15  16
ENDBRANCH   4  15
TORSDOF 5
ENDMDL
MODEL 9
REMARK VINA RESULT:    -6.580      0.524      2.171
REMARK INTER + INTRA:          -8.806
REMARK INTER:                  -8.503
REMARK INTRA:                  -0.303
REMARK UNBOUND:                -0.303
REMARK  Name = 2CEO_A_1395_T44
REMARK  5 active torsions:
REMARK  status: ('A' for Active; 'I' for Inactive)
REMARK    1  A    between atoms: C_1  and  C_7
REMARK    2  A    between atoms: C_4  and  O_17
REMARK    3  A    between atoms: C_7  and  CA_8
REMARK    4  A    between atoms: CA_8  and  C_9
REMARK    5  A    between atoms: C_10  and  O_17
REMARK                            x       y       z     vdW  Elec       q    Type
REMARK                         _______ _______ _______ _____ _____    ______ ____
ROOT
ATOM      1  C   UNL     1      -7.841  -2.157 -40.878  0.00  0.00    +0.000 C 
ATOM      2  C   UNL     1      -8.163  -1.738 -39.577  0.00  0.00    +0.000 C 
ATOM      3  C   UNL     1      -7.730  -0.516 -39.069  0.00  0.00    +0.000 C 
ATOM      4  C   UNL     1      -6.903   0.340 -39.939  0.00  0.00    +0.000 C 
ATOM      5  C   UNL     1      -6.584  -0.140 -41.292  0.00  0.00    +0.000 C 
ATOM      6  C   UNL     1      -7.056  -1.376 -41.731  0.00  0.00    +0.000 C 
ATOM      7  I   UNL     1      -8.199   0.136 -37.138  0.00  0.00    +0.000 I 
ATOM      8  I   UNL     1      -5.420   1.136 -42.445  0.00  0.00    +0.000 I 
ENDROOT
BRANCH   1   9
ATOM      9  C   UNL     1      -8.336  -3.499 -41.369  0.00  0.00    +0.000 C 
BRANCH   9  10
ATOM     10  CA  UNL     1      -8.458  -4.528 -40.245  0.00  0.00    +0.000 C 
ATOM     11  N   UNL     1      -7.136  -5.026 -39.896  0.00  0.00    +0.000 NA
BRANCH  10  12
ATOM     12  C   UNL     1      -9.416  -5.647 -40.597  0.00  0.00    +0.000 C 
ATOM     13  O   UNL     1      -8.963  -6.758 -40.953  0.00  0.00    +0.000 OA
ATOM     14  OXT UNL     1     -10.648  -5.435 -40.514  0.00  0.00    +0.000 OA
ENDBRANCH  10  12
ENDBRANCH   9  10
ENDBRANCH   1   9
BRANCH   4  15
ATOM     15  O   UNL     1      -6.436   1.560 -39.525  0.00  0.00    +0.000 OA
BRANCH  15  16
ATOM     16  C   UNL     1      -7.220   2.690 -39.591  0.00  0.00    +0.000 C 
ATOM     17  C   UNL     1      -6.971   3.781 -38.752  0.00  0.00    +0.000 C 
ATOM     18  C   UNL     1      -7.752   4.932 -38.806  0.00  0.00    +0.000 C 
ATOM     19  C   UNL     1      -8.868   5.005 -39.770  0.00  0.00    +0.000 C 
ATOM     20  C   UNL     1      -9.087   3.832 -40.630  0.00  0.00    +0.000 C 
ATOM     21  C   UNL     1      -8.263   2.717 -40.521  0.00  0.00    +0.000 C 
ATOM     22  O   UNL     1      -9.669   6.103 -39.880  0.00  0.00    +0.000 OA
ATOM     23  I   UNL     1      -7.382   6.560 -37.559  0.00  0.00    +0.000 I 
ATOM     24  I   UNL     1     -10.652   3.914 -41.987  0.00  0.00    +0.000 I 
ENDBRANCH  15  16
ENDBRANCH   4  15
TORSDOF 5
ENDMDL
